@<TRIPOS>MOLECULE
C6H14_4_1
 20 19 0 0 0
SMALL
USER_CHARGES
****
VDW energy = 9.73
@<TRIPOS>ATOM
   1 C1       -1.5020    -1.2520    -0.0570  C.3     1  <O>11      -0.0624
   2 H1       -1.0140    -2.1680     0.2940  H       1  <O>11       0.0232
   3 H2       -1.6200    -1.3350    -1.1420  H       1  <O>11       0.0232
   4 H3       -2.5060    -1.2320     0.3800  H       1  <O>11       0.0232
   5 C2       -0.7030    -0.0000     0.3320  C.3     1  <O>11      -0.0444
   6 H4       -0.5660    -0.0000     1.4410  H       1  <O>11       0.0298
   7 C3        0.7030    -0.0000    -0.3320  C.3     1  <O>11      -0.0444
   8 H5        0.5660     0.0000    -1.4410  H       1  <O>11       0.0298
   9 C4        1.5020     1.2520     0.0570  C.3     1  <O>11      -0.0624
  10 H6        1.6190     1.3350     1.1430  H       1  <O>11       0.0232
  11 H7        2.5060     1.2320    -0.3800  H       1  <O>11       0.0232
  12 H8        1.0140     2.1670    -0.2940  H       1  <O>11       0.0232
  13 C5       -1.5020     1.2530    -0.0560  C.3     1  <O>11      -0.0624
  14 H9       -1.0130     2.1680     0.2940  H       1  <O>11       0.0232
  15 H10      -1.6200     1.3350    -1.1420  H       1  <O>11       0.0232
  16 H11      -2.5060     1.2320     0.3810  H       1  <O>11       0.0232
  17 C6        1.5020    -1.2530     0.0560  C.3     1  <O>11      -0.0624
  18 H12       1.6200    -1.3350     1.1420  H       1  <O>11       0.0232
  19 H13       1.0130    -2.1680    -0.2940  H       1  <O>11       0.0232
  20 H14       2.5060    -1.2330    -0.3810  H       1  <O>11       0.0232
@<TRIPOS>BOND
     1     1     2    1
     2     1     5    1
     3     1     3    1
     4     1     4    1
     5     5     7    1
     6     5     6    1
     7     7     9    1
     8     7    17    1
     9     7     8    1
    10     9    11    1
    11     9    10    1
    12     9    12    1
    13    13    14    1
    14     5    13    1
    15    13    15    1
    16    13    16    1
    17    17    18    1
    18    17    20    1
    19    17    19    1
@<TRIPOS>MOLECULE
C6H14_4_2
 20 19 0 0 0
SMALL
USER_CHARGES
****
VDW energy = 18.07
@<TRIPOS>ATOM
   1 C1       -1.5022    -1.2524    -0.0569  C.3     1  <O>11      -0.0624
   2 H1       -1.0139    -2.1677     0.2939  H       1  <O>11       0.0232
   3 H2       -1.6196    -1.3347    -1.1424  H       1  <O>11       0.0232
   4 H3       -2.5062    -1.2319     0.3801  H       1  <O>11       0.0232
   5 C2       -0.7031    -0.0001     0.3323  C.3     1  <O>11      -0.0444
   6 H4       -0.5656    -0.0003     1.4412  H       1  <O>11       0.0298
   7 C3        0.7031    -0.0001    -0.3323  C.3     1  <O>11      -0.0444
   8 H5        1.4389    -0.4013     0.4067  H       1  <O>11       0.0298
   9 C4        0.7295    -0.8976    -1.5781  C.3     1  <O>11      -0.0624
  10 H6       -0.0157    -0.5843    -2.3168  H       1  <O>11       0.0232
  11 H7        1.7087    -0.8655    -2.0674  H       1  <O>11       0.0232
  12 H8        0.5264    -1.9437    -1.3260  H       1  <O>11       0.0232
  13 C5       -1.5020     1.2525    -0.0564  C.3     1  <O>11      -0.0624
  14 H9       -1.0133     2.1676     0.2943  H       1  <O>11       0.0232
  15 H10      -1.6197     1.3350    -1.1419  H       1  <O>11       0.0232
  16 H11      -2.5058     1.2322     0.3810  H       1  <O>11       0.0232
  17 C6        1.1341     1.4214    -0.7220  C.3     1  <O>11      -0.0624
  18 H12       0.4163     1.8875    -1.4050  H       1  <O>11       0.0232
  19 H13       1.2255     2.0700     0.1555  H       1  <O>11       0.0232
  20 H14       2.1073     1.4153    -1.2243  H       1  <O>11       0.0232
@<TRIPOS>BOND
     1     1     2    1
     2     1     5    1
     3     1     3    1
     4     1     4    1
     5     5     7    1
     6     5     6    1
     7     7     9    1
     8     7    17    1
     9     7     8    1
    10     9    11    1
    11     9    10    1
    12     9    12    1
    13    13    14    1
    14     5    13    1
    15    13    15    1
    16    13    16    1
    17    17    18    1
    18    17    20    1
    19    17    19    1
@<TRIPOS>MOLECULE
C6H14_4_3
 20 19 0 0 0
SMALL
USER_CHARGES
****
VDW energy = 18.07
@<TRIPOS>ATOM
   1 C1       -1.5022    -1.2524    -0.0569  C.3     1  <O>11      -0.0624
   2 H1       -1.0139    -2.1677     0.2939  H       1  <O>11       0.0232
   3 H2       -1.6196    -1.3347    -1.1424  H       1  <O>11       0.0232
   4 H3       -2.5062    -1.2319     0.3801  H       1  <O>11       0.0232
   5 C2       -0.7031    -0.0001     0.3323  C.3     1  <O>11      -0.0444
   6 H4       -0.5656    -0.0003     1.4412  H       1  <O>11       0.0298
   7 C3        0.7031    -0.0001    -0.3323  C.3     1  <O>11      -0.0444
   8 H5        1.4390     0.4007     0.4069  H       1  <O>11       0.0298
   9 C4        1.1339    -1.4215    -0.7226  C.3     1  <O>11      -0.0624
  10 H6        0.4153    -1.8877    -1.4048  H       1  <O>11       0.0232
  11 H7        2.1064    -1.4153    -1.2260  H       1  <O>11       0.0232
  12 H8        1.2263    -2.0702     0.1549  H       1  <O>11       0.0232
  13 C5       -1.5020     1.2525    -0.0564  C.3     1  <O>11      -0.0624
  14 H9       -1.0133     2.1676     0.2943  H       1  <O>11       0.0232
  15 H10      -1.6197     1.3350    -1.1419  H       1  <O>11       0.0232
  16 H11      -2.5058     1.2322     0.3810  H       1  <O>11       0.0232
  17 C6        0.7296     0.8979    -1.5778  C.3     1  <O>11      -0.0624
  18 H12      -0.0147     0.5842    -2.3171  H       1  <O>11       0.0232
  19 H13       0.5256     1.9437    -1.3255  H       1  <O>11       0.0232
  20 H14       1.7093     0.8667    -2.0664  H       1  <O>11       0.0232
@<TRIPOS>BOND
     1     1     2    1
     2     1     5    1
     3     1     3    1
     4     1     4    1
     5     5     7    1
     6     5     6    1
     7     7     9    1
     8     7    17    1
     9     7     8    1
    10     9    11    1
    11     9    10    1
    12     9    12    1
    13    13    14    1
    14     5    13    1
    15    13    15    1
    16    13    16    1
    17    17    18    1
    18    17    20    1
    19    17    19    1
