@<TRIPOS>MOLECULE
C6H14_4_1
 20 19 0 0 0
SMALL
USER_CHARGES
****
VDW energy = 9.73
@<TRIPOS>ATOM
      1 C1         -1.5344   -1.2508   -0.0426 C.3       1<O>11        -0.0624
      2 H1         -1.0768   -2.1681    0.3896 H         1<O>11         0.0232
      3 H2         -1.6022   -1.3644   -1.1488 H         1<O>11         0.0232
      4 H3         -2.5664   -1.1828    0.3720 H         1<O>11         0.0232
      5 C2         -0.7114   -0.0001    0.3235 C.3       1<O>11        -0.0444
      6 H4         -0.5926   -0.0002    1.4330 H         1<O>11         0.0298
      7 C3          0.7113   -0.0001   -0.3234 C.3       1<O>11        -0.0444
      8 H5          0.5925    0.0000   -1.4329 H         1<O>11         0.0298
      9 C4          1.5343    1.2506    0.0427 C.3       1<O>11        -0.0624
     10 H6          1.6021    1.3643    1.1489 H         1<O>11         0.0232
     11 H7          2.5663    1.1826   -0.3718 H         1<O>11         0.0232
     12 H8          1.0768    2.1679   -0.3896 H         1<O>11         0.0232
     13 C5         -1.5341    1.2510   -0.0423 C.3       1<O>11        -0.0624
     14 H9         -1.0763    2.1680    0.3900 H         1<O>11         0.0232
     15 H10        -1.6021    1.3647   -1.1485 H         1<O>11         0.0232
     16 H11        -2.5660    1.1831    0.3725 H         1<O>11         0.0232
     17 C6          1.5340   -1.2512    0.0424 C.3       1<O>11        -0.0624
     18 H12         1.6020   -1.3649    1.1486 H         1<O>11         0.0232
     19 H13         1.0762   -2.1682   -0.3899 H         1<O>11         0.0232
     20 H14         2.5659   -1.1833   -0.3724 H         1<O>11         0.0232
@<TRIPOS>BOND
     1    1    2 1
     2    1    5 1
     3    1    3 1
     4    1    4 1
     5    5    7 1
     6    5    6 1
     7    7    9 1
     8    7   17 1
     9    7    8 1
    10    9   11 1
    11    9   10 1
    12    9   12 1
    13   13   14 1
    14    5   13 1
    15   13   15 1
    16   13   16 1
    17   17   18 1
    18   17   20 1
    19   17   19 1
@<TRIPOS>MOLECULE
C6H14_4_2
 20 19 0 0 0
SMALL
USER_CHARGES
****
VDW energy = 18.07
@<TRIPOS>ATOM
      1 C1         -1.4226   -1.2911    0.4191 C.3       1<O>11        -0.0624
      2 H1         -0.7194   -1.9952    0.9195 H         1<O>11         0.0232
      3 H2         -1.7422   -1.7318   -0.5520 H         1<O>11         0.0232
      4 H3         -2.3231   -1.1879    1.0672 H         1<O>11         0.0232
      5 C2         -0.7581    0.0810    0.2154 C.3       1<O>11        -0.0444
      6 H4         -0.5877    0.4840    1.2422 H         1<O>11         0.0298
      7 C3          0.6385   -0.0262   -0.4679 C.3       1<O>11        -0.0444
      8 H5          1.2268   -0.7777    0.1107 H         1<O>11         0.0298
      9 C4          0.6051   -0.5245   -1.9231 C.3       1<O>11        -0.0624
     10 H6          0.0766    0.2006   -2.5819 H         1<O>11         0.0232
     11 H7          1.6435   -0.6519   -2.3064 H         1<O>11         0.0232
     12 H8          0.0984   -1.5123   -1.9934 H         1<O>11         0.0232
     13 C5         -1.7386    1.0451   -0.4746 C.3       1<O>11        -0.0624
     14 H9         -1.3028    2.0655   -0.5543 H         1<O>11         0.0232
     15 H10        -2.0032    0.6844   -1.4940 H         1<O>11         0.0232
     16 H11        -2.6766    1.1264    0.1213 H         1<O>11         0.0232
     17 C6          1.4425    1.2819   -0.3763 C.3       1<O>11        -0.0624
     18 H12         0.9984    2.0734   -1.0211 H         1<O>11         0.0232
     19 H13         1.4726    1.6491    0.6748 H         1<O>11         0.0232
     20 H14         2.4919    1.1103   -0.7093 H         1<O>11         0.0232
@<TRIPOS>BOND
     1    1    2 1
     2    1    5 1
     3    1    3 1
     4    1    4 1
     5    5    7 1
     6    5    6 1
     7    7    9 1
     8    7   17 1
     9    7    8 1
    10    9   11 1
    11    9   10 1
    12    9   12 1
    13   13   14 1
    14    5   13 1
    15   13   15 1
    16   13   16 1
    17   17   18 1
    18   17   20 1
    19   17   19 1
@<TRIPOS>MOLECULE
C6H14_4_3
 20 19 0 0 0
SMALL
USER_CHARGES
****
VDW energy = 18.07
@<TRIPOS>ATOM
      1 C1         -1.7375   -1.0483   -0.4709 C.3       1<O>11        -0.0624
      2 H1         -1.3031   -2.0698   -0.5413 H         1<O>11         0.0232
      3 H2         -1.9978   -0.6943   -1.4937 H         1<O>11         0.0232
      4 H3         -2.6778   -1.1238    0.1219 H         1<O>11         0.0232
      5 C2         -0.7578   -0.0811    0.2160 C.3       1<O>11        -0.0444
      6 H4         -0.5863   -0.4817    1.2437 H         1<O>11         0.0298
      7 C3          0.6389    0.0267   -0.4675 C.3       1<O>11        -0.0444
      8 H5          1.2277    0.7761    0.1135 H         1<O>11         0.0298
      9 C4          1.4418   -1.2822   -0.3806 C.3       1<O>11        -0.0624
     10 H6          0.9949   -2.0719   -1.0256 H         1<O>11         0.0232
     11 H7          2.4902   -1.1110   -0.7166 H         1<O>11         0.0232
     12 H8          1.4748   -1.6513    0.6698 H         1<O>11         0.0232
     13 C5         -1.4249    1.2902    0.4166 C.3       1<O>11        -0.0624
     14 H9         -0.7242    1.9959    0.9183 H         1<O>11         0.0232
     15 H10        -1.7425    1.7291   -0.5559 H         1<O>11         0.0232
     16 H11        -2.3270    1.1860    1.0622 H         1<O>11         0.0232
     17 C6          0.6068    0.5297   -1.9212 C.3       1<O>11        -0.0624
     18 H12         0.0716   -0.1893   -2.5814 H         1<O>11         0.0232
     19 H13         0.1079    1.5216   -1.9871 H         1<O>11         0.0232
     20 H14         1.6453    0.6503   -2.3062 H         1<O>11         0.0232
@<TRIPOS>BOND
     1    1    2 1
     2    1    5 1
     3    1    3 1
     4    1    4 1
     5    5    7 1
     6    5    6 1
     7    7    9 1
     8    7   17 1
     9    7    8 1
    10    9   11 1
    11    9   10 1
    12    9   12 1
    13   13   14 1
    14    5   13 1
    15   13   15 1
    16   13   16 1
    17   17   18 1
    18   17   20 1
    19   17   19 1
