@<TRIPOS>MOLECULE
dummy
 20 19 0 0 0
SMALL
USER_CHARGES
****
VDW energy = 9.73
@<TRIPOS>ATOM
      1 C1         -1.5020   -1.2520   -0.0570 C.3       1<O>11        -0.0624
      2 H1         -1.0140   -2.1680    0.2940 H         1<O>11         0.0232
      3 H2         -1.6200   -1.3350   -1.1420 H         1<O>11         0.0232
      4 H3         -2.5060   -1.2320    0.3800 H         1<O>11         0.0232
      5 C2         -0.7030   -0.0000    0.3320 C.3       1<O>11        -0.0444
      6 H4         -0.5660   -0.0000    1.4410 H         1<O>11         0.0298
      7 C3          0.7030   -0.0000   -0.3320 C.3       1<O>11        -0.0444
      8 H5          0.5660    0.0000   -1.4410 H         1<O>11         0.0298
      9 C4          1.5020    1.2520    0.0570 C.3       1<O>11        -0.0624
     10 H6          1.6190    1.3350    1.1430 H         1<O>11         0.0232
     11 H7          2.5060    1.2320   -0.3800 H         1<O>11         0.0232
     12 H8          1.0140    2.1670   -0.2940 H         1<O>11         0.0232
     13 C5         -1.5020    1.2530   -0.0560 C.3       1<O>11        -0.0624
     14 H9         -1.0130    2.1680    0.2940 H         1<O>11         0.0232
     15 H10        -1.6200    1.3350   -1.1420 H         1<O>11         0.0232
     16 H11        -2.5060    1.2320    0.3810 H         1<O>11         0.0232
     17 C6          1.5020   -1.2530    0.0560 C.3       1<O>11        -0.0624
     18 H12         1.6200   -1.3350    1.1420 H         1<O>11         0.0232
     19 H13         1.0130   -2.1680   -0.2940 H         1<O>11         0.0232
     20 H14         2.5060   -1.2330   -0.3810 H         1<O>11         0.0232
@<TRIPOS>BOND
     1    1    2 1
     2    1    5 1
     3    1    3 1
     4    1    4 1
     5    5    7 1
     6    5    6 1
     7    7    9 1
     8    7   17 1
     9    7    8 1
    10    9   11 1
    11    9   10 1
    12    9   12 1
    13   13   14 1
    14    5   13 1
    15   13   15 1
    16   13   16 1
    17   17   18 1
    18   17   20 1
    19   17   19 1
