@<TRIPOS>MOLECULE
dummy
 20 19 0 0 0
SMALL
USER_CHARGES
****
VDW energy = 9.73
@<TRIPOS>ATOM
   1 C1       -1.5022    -1.2524    -0.0569  C.3     1  <O>11      -0.0624
   2 H1       -1.0139    -2.1677     0.2939  H       1  <O>11       0.0232
   3 H2       -1.6196    -1.3347    -1.1424  H       1  <O>11       0.0232
   4 H3       -2.5062    -1.2319     0.3801  H       1  <O>11       0.0232
   5 C2       -0.7031    -0.0001     0.3323  C.3     1  <O>11      -0.0444
   6 H4       -0.5656    -0.0003     1.4412  H       1  <O>11       0.0298
   7 C3        0.7031    -0.0001    -0.3323  C.3     1  <O>11      -0.0444
   8 H5        0.5656     0.0002    -1.4412  H       1  <O>11       0.0298
   9 C4        1.5022     1.2522     0.0569  C.3     1  <O>11      -0.0624
  10 H6        1.6192     1.3348     1.1425  H       1  <O>11       0.0232
  11 H7        2.5063     1.2315    -0.3797  H       1  <O>11       0.0232
  12 H8        1.0141     2.1674    -0.2942  H       1  <O>11       0.0232
  13 C5       -1.5020     1.2525    -0.0564  C.3     1  <O>11      -0.0624
  14 H9       -1.0133     2.1676     0.2943  H       1  <O>11       0.0232
  15 H10      -1.6197     1.3350    -1.1419  H       1  <O>11       0.0232
  16 H11      -2.5058     1.2322     0.3810  H       1  <O>11       0.0232
  17 C6        1.5020    -1.2527     0.0564  C.3     1  <O>11      -0.0624
  18 H12       1.6201    -1.3350     1.1419  H       1  <O>11       0.0232
  19 H13       1.0131    -2.1678    -0.2939  H       1  <O>11       0.0232
  20 H14       2.5057    -1.2326    -0.3813  H       1  <O>11       0.0232
@<TRIPOS>BOND
     1     1     2    1
     2     1     5    1
     3     1     3    1
     4     1     4    1
     5     5     7    1
     6     5     6    1
     7     7     9    1
     8     7    17    1
     9     7     8    1
    10     9    11    1
    11     9    10    1
    12     9    12    1
    13    13    14    1
    14     5    13    1
    15    13    15    1
    16    13    16    1
    17    17    18    1
    18    17    20    1
    19    17    19    1
