@<TRIPOS>MOLECULE
C6H14_3_1
   20    19     0     0     0
SMALL
NO_CHARGES

VDW energy = no energy computed
@<TRIPOS>ATOM
      1 C1         -2.5316   -0.2239   -0.3685 C.3       1 <O>         0.0000
      2 H1         -2.4649   -0.4389   -1.4409 H         1 <O>         0.0000
      3 H2         -2.7223    0.8503   -0.2612 H         1 <O>         0.0000
      4 H3         -3.4085   -0.7534    0.0199 H         1 <O>         0.0000
      5 C2         -1.2629   -0.6453    0.3693 C.3       1 <O>         0.0000
      6 H4         -1.3737   -0.4431    1.4517 H         1 <O>         0.0000
      7 H5         -1.1383   -1.7424    0.2797 H         1 <O>         0.0000
      8 C3          0.0000    0.0644   -0.1690 C.3       1 <O>         0.0000
      9 H6          0.0000   -0.0146   -1.2839 H         1 <O>         0.0000
     10 C4          1.2629   -0.6452    0.3693 C.3       1 <O>         0.0000
     11 H7          1.1383   -1.7423    0.2798 H         1 <O>         0.0000
     12 H8          1.3737   -0.4430    1.4517 H         1 <O>         0.0000
     13 C5          2.5316   -0.2239   -0.3685 C.3       1 <O>         0.0000
     14 H9          2.7223    0.8503   -0.2614 H         1 <O>         0.0000
     15 H10         3.4085   -0.7533    0.0200 H         1 <O>         0.0000
     16 H11         2.4649   -0.4390   -1.4409 H         1 <O>         0.0000
     17 C6         -0.0000    1.5501    0.2110 C.3       1 <O>         0.0000
     18 H12        -0.8835    2.0609   -0.1865 H         1 <O>         0.0000
     19 H13        -0.0001    1.6905    1.2969 H         1 <O>         0.0000
     20 H14         0.8836    2.0609   -0.1864 H         1 <O>         0.0000
@<TRIPOS>BOND
     1    1    2 1
     2    1    5 1
     3    1    3 1
     4    1    4 1
     5    5    7 1
     6    5    8 1
     7    5    6 1
     8    8    9 1
     9    8   10 1
    10   10   13 1
    11   10   12 1
    12   10   11 1
    13   13   14 1
    14   13   15 1
    15   13   16 1
    16    8   17 1
    17   17   20 1
    18   17   18 1
    19   17   19 1

