@<TRIPOS>MOLECULE
C6H14_3_1
 20 19 0 0 0
SMALL
USER_CHARGES
****
VDW energy = 8.10
@<TRIPOS>ATOM
   1 C1       -2.5320    -0.2240    -0.3680  C.3     1  <O>11      -0.0650
   2 H1       -2.4650    -0.4390    -1.4410  H       1  <O>11       0.0230
   3 H2       -2.7220     0.8500    -0.2610  H       1  <O>11       0.0230
   4 H3       -3.4080    -0.7530     0.0200  H       1  <O>11       0.0230
   5 C2       -1.2630    -0.6450     0.3690  C.3     1  <O>11      -0.0533
   6 H4       -1.3740    -0.4430     1.4520  H       1  <O>11       0.0265
   7 H5       -1.1380    -1.7420     0.2800  H       1  <O>11       0.0265
   8 C3        0.0000     0.0640    -0.1690  C.3     1  <O>11      -0.0444
   9 H6        0.0000    -0.0150    -1.2840  H       1  <O>11       0.0298
  10 C4        1.2630    -0.6450     0.3690  C.3     1  <O>11      -0.0533
  11 H7        1.2500    -1.7090     0.0610  H       1  <O>11       0.0265
  12 H8        1.2450    -0.6540     1.4760  H       1  <O>11       0.0265
  13 C5        2.5550     0.0040    -0.1230  C.3     1  <O>11      -0.0650
  14 H9        2.6330     1.0460     0.2070  H       1  <O>11       0.0230
  15 H10       3.4330    -0.5280     0.2590  H       1  <O>11       0.0230
  16 H11       2.6160     0.0000    -1.2170  H       1  <O>11       0.0230
  17 C6       -0.0000     1.5500     0.2110  C.3     1  <O>11      -0.0624
  18 H12      -0.8830     2.0610    -0.1860  H       1  <O>11       0.0232
  19 H13      -0.0000     1.6910     1.2970  H       1  <O>11       0.0232
  20 H14       0.8840     2.0610    -0.1860  H       1  <O>11       0.0232
@<TRIPOS>BOND
     1     1     2    1
     2     1     5    1
     3     1     3    1
     4     1     4    1
     5     5     7    1
     6     5     8    1
     7     5     6    1
     8     8     9    1
     9     8    10    1
    10    10    13    1
    11    10    12    1
    12    10    11    1
    13    13    14    1
    14    13    15    1
    15    13    16    1
    16     8    17    1
    17    17    20    1
    18    17    18    1
    19    17    19    1
@<TRIPOS>MOLECULE
C6H14_3_2
 20 19 0 0 0
SMALL
USER_CHARGES
****
VDW energy = 13.76
@<TRIPOS>ATOM
   1 C1       -2.5316    -0.2239    -0.3685  C.3     1  <O>11      -0.0650
   2 H1       -2.4649    -0.4389    -1.4409  H       1  <O>11       0.0230
   3 H2       -2.7223     0.8503    -0.2612  H       1  <O>11       0.0230
   4 H3       -3.4085    -0.7534     0.0199  H       1  <O>11       0.0230
   5 C2       -1.2629    -0.6453     0.3693  C.3     1  <O>11      -0.0533
   6 H4       -1.3737    -0.4431     1.4517  H       1  <O>11       0.0265
   7 H5       -1.1383    -1.7424     0.2797  H       1  <O>11       0.0265
   8 C3        0.0000     0.0644    -0.1690  C.3     1  <O>11      -0.0444
   9 H6        0.0000    -0.0146    -1.2839  H       1  <O>11       0.0298
  10 C4        1.2629    -0.6452     0.3693  C.3     1  <O>11      -0.0533
  11 H7        2.0515     0.1056     0.5732  H       1  <O>11       0.0265
  12 H8        1.6783    -1.3128    -0.4095  H       1  <O>11       0.0265
  13 C5        0.9897    -1.4424     1.6426  C.3     1  <O>11      -0.0650
  14 H9        0.2506    -2.2338     1.4719  H       1  <O>11       0.0230
  15 H10       1.9032    -1.9207     2.0126  H       1  <O>11       0.0230
  16 H11       0.6046    -0.8024     2.4444  H       1  <O>11       0.0230
  17 C6       -0.0000     1.5501     0.2110  C.3     1  <O>11      -0.0624
  18 H12      -0.8835     2.0609    -0.1865  H       1  <O>11       0.0232
  19 H13      -0.0001     1.6905     1.2969  H       1  <O>11       0.0232
  20 H14       0.8836     2.0609    -0.1864  H       1  <O>11       0.0232
@<TRIPOS>BOND
     1     1     2    1
     2     1     5    1
     3     1     3    1
     4     1     4    1
     5     5     7    1
     6     5     8    1
     7     5     6    1
     8     8     9    1
     9     8    10    1
    10    10    13    1
    11    10    12    1
    12    10    11    1
    13    13    14    1
    14    13    15    1
    15    13    16    1
    16     8    17    1
    17    17    20    1
    18    17    18    1
    19    17    19    1
@<TRIPOS>MOLECULE
C6H14_3_3
 20 19 0 0 0
SMALL
USER_CHARGES
****
VDW energy = 13.76
@<TRIPOS>ATOM
   1 C1       -2.5316    -0.2239    -0.3685  C.3     1  <O>11      -0.0650
   2 H1       -2.4649    -0.4389    -1.4409  H       1  <O>11       0.0230
   3 H2       -2.7223     0.8503    -0.2612  H       1  <O>11       0.0230
   4 H3       -3.4085    -0.7534     0.0199  H       1  <O>11       0.0230
   5 C2       -1.2629    -0.6453     0.3693  C.3     1  <O>11      -0.0533
   6 H4       -1.3737    -0.4431     1.4517  H       1  <O>11       0.0265
   7 H5       -1.1383    -1.7424     0.2797  H       1  <O>11       0.0265
   8 C3       -0.0000     0.0644    -0.1690  C.3     1  <O>11      -0.0444
   9 H6        0.6523     0.3289     0.6992  H       1  <O>11       0.0298
  10 C4       -0.4059     1.3704    -0.8885  C.3     1  <O>11      -0.0533
  11 H7       -1.1536     1.9134    -0.2775  H       1  <O>11       0.0265
  12 H8       -0.9144     1.1306    -1.8418  H       1  <O>11       0.0265
  13 C5        0.7851     2.2883    -1.1539  C.3     1  <O>11      -0.0650
  14 H9        1.5281     1.8076    -1.8009  H       1  <O>11       0.0230
  15 H10       0.4684     3.2131    -1.6484  H       1  <O>11       0.0230
  16 H11       1.2932     2.5687    -0.2244  H       1  <O>11       0.0230
  17 C6        0.7911    -0.8565    -1.1059  C.3     1  <O>11      -0.0624
  18 H12       1.0983    -1.7742    -0.5932  H       1  <O>11       0.0232
  19 H13       0.1998    -1.1503    -1.9794  H       1  <O>11       0.0232
  20 H14       1.6978    -0.3640    -1.4733  H       1  <O>11       0.0232
@<TRIPOS>BOND
     1     1     2    1
     2     1     5    1
     3     1     3    1
     4     1     4    1
     5     5     7    1
     6     5     8    1
     7     5     6    1
     8     8     9    1
     9     8    10    1
    10    10    13    1
    11    10    12    1
    12    10    11    1
    13    13    14    1
    14    13    15    1
    15    13    16    1
    16     8    17    1
    17    17    20    1
    18    17    18    1
    19    17    19    1
@<TRIPOS>MOLECULE
C6H14_3_4
 20 19 0 0 0
SMALL
USER_CHARGES
****
VDW energy = 16.03
@<TRIPOS>ATOM
   1 C1       -2.5316    -0.2239    -0.3685  C.3     1  <O>11      -0.0650
   2 H1       -2.4649    -0.4389    -1.4409  H       1  <O>11       0.0230
   3 H2       -2.7223     0.8503    -0.2612  H       1  <O>11       0.0230
   4 H3       -3.4085    -0.7534     0.0199  H       1  <O>11       0.0230
   5 C2       -1.2629    -0.6453     0.3693  C.3     1  <O>11      -0.0533
   6 H4       -1.3737    -0.4431     1.4517  H       1  <O>11       0.0265
   7 H5       -1.1383    -1.7424     0.2797  H       1  <O>11       0.0265
   8 C3        0.0000     0.0644    -0.1690  C.3     1  <O>11      -0.0444
   9 H6        0.0000    -0.0146    -1.2839  H       1  <O>11       0.0298
  10 C4        1.2629    -0.6452     0.3693  C.3     1  <O>11      -0.0533
  11 H7        1.6644    -0.0818     1.2345  H       1  <O>11       0.0265
  12 H8        2.0600    -0.6248    -0.3981  H       1  <O>11       0.0265
  13 C5        0.9898    -2.0863     0.7938  C.3     1  <O>11      -0.0650
  14 H9        0.6393    -2.6949    -0.0479  H       1  <O>11       0.0230
  15 H10       1.8956    -2.5605     1.1870  H       1  <O>11       0.0230
  16 H11       0.2242    -2.1382     1.5761  H       1  <O>11       0.0230
  17 C6       -0.0000     1.5501     0.2110  C.3     1  <O>11      -0.0624
  18 H12      -0.8835     2.0609    -0.1865  H       1  <O>11       0.0232
  19 H13      -0.0001     1.6905     1.2969  H       1  <O>11       0.0232
  20 H14       0.8836     2.0609    -0.1864  H       1  <O>11       0.0232
@<TRIPOS>BOND
     1     1     2    1
     2     1     5    1
     3     1     3    1
     4     1     4    1
     5     5     7    1
     6     5     8    1
     7     5     6    1
     8     8     9    1
     9     8    10    1
    10    10    13    1
    11    10    12    1
    12    10    11    1
    13    13    14    1
    14    13    15    1
    15    13    16    1
    16     8    17    1
    17    17    20    1
    18    17    18    1
    19    17    19    1
@<TRIPOS>MOLECULE
C6H14_3_5
 20 19 0 0 0
SMALL
USER_CHARGES
****
VDW energy = 16.04
@<TRIPOS>ATOM
   1 C1       -2.5316    -0.2239    -0.3685  C.3     1  <O>11      -0.0650
   2 H1       -2.4649    -0.4389    -1.4409  H       1  <O>11       0.0230
   3 H2       -2.7223     0.8503    -0.2612  H       1  <O>11       0.0230
   4 H3       -3.4085    -0.7534     0.0199  H       1  <O>11       0.0230
   5 C2       -1.2629    -0.6453     0.3693  C.3     1  <O>11      -0.0533
   6 H4       -1.3737    -0.4431     1.4517  H       1  <O>11       0.0265
   7 H5       -1.1383    -1.7424     0.2797  H       1  <O>11       0.0265
   8 C3       -0.0000     0.0644    -0.1690  C.3     1  <O>11      -0.0444
   9 H6        0.2047     0.9549     0.4747  H       1  <O>11       0.0298
  10 C4       -0.2561     0.5552    -1.6118  C.3     1  <O>11      -0.0533
  11 H7       -1.2530     1.0349    -1.6688  H       1  <O>11       0.0265
  12 H8       -0.2998    -0.3105    -2.2999  H       1  <O>11       0.0265
  13 C5        0.8034     1.5445    -2.0914  C.3     1  <O>11      -0.0650
  14 H9        1.8021     1.0925    -2.1010  H       1  <O>11       0.0230
  15 H10       0.5896     1.8897    -3.1089  H       1  <O>11       0.0230
  16 H11       0.8509     2.4290    -1.4463  H       1  <O>11       0.0230
  17 C6        1.2190    -0.8643    -0.1124  C.3     1  <O>11      -0.0624
  18 H12       1.4160    -1.1978     0.9121  H       1  <O>11       0.0232
  19 H13       1.0756    -1.7589    -0.7272  H       1  <O>11       0.0232
  20 H14       2.1203    -0.3579    -0.4740  H       1  <O>11       0.0232
@<TRIPOS>BOND
     1     1     2    1
     2     1     5    1
     3     1     3    1
     4     1     4    1
     5     5     7    1
     6     5     8    1
     7     5     6    1
     8     8     9    1
     9     8    10    1
    10    10    13    1
    11    10    12    1
    12    10    11    1
    13    13    14    1
    14    13    15    1
    15    13    16    1
    16     8    17    1
    17    17    20    1
    18    17    18    1
    19    17    19    1
