@<TRIPOS>MOLECULE
dummy
 20 19 0 0 0
SMALL
USER_CHARGES
****
VDW energy = 8.10
@<TRIPOS>ATOM
      1 C1         -2.5320   -0.2240   -0.3680 C.3       1<O>11        -0.0650
      2 H1         -2.4650   -0.4390   -1.4410 H         1<O>11         0.0230
      3 H2         -2.7220    0.8500   -0.2610 H         1<O>11         0.0230
      4 H3         -3.4080   -0.7530    0.0200 H         1<O>11         0.0230
      5 C2         -1.2630   -0.6450    0.3690 C.3       1<O>11        -0.0533
      6 H4         -1.3740   -0.4430    1.4520 H         1<O>11         0.0265
      7 H5         -1.1380   -1.7420    0.2800 H         1<O>11         0.0265
      8 C3          0.0000    0.0640   -0.1690 C.3       1<O>11        -0.0444
      9 H6          0.0000   -0.0150   -1.2840 H         1<O>11         0.0298
     10 C4          1.2630   -0.6450    0.3690 C.3       1<O>11        -0.0533
     11 H7          1.2500   -1.7090    0.0610 H         1<O>11         0.0265
     12 H8          1.2450   -0.6540    1.4760 H         1<O>11         0.0265
     13 C5          2.5550    0.0040   -0.1230 C.3       1<O>11        -0.0650
     14 H9          2.6330    1.0460    0.2070 H         1<O>11         0.0230
     15 H10         3.4330   -0.5280    0.2590 H         1<O>11         0.0230
     16 H11         2.6160    0.0000   -1.2170 H         1<O>11         0.0230
     17 C6         -0.0000    1.5500    0.2110 C.3       1<O>11        -0.0624
     18 H12        -0.8830    2.0610   -0.1860 H         1<O>11         0.0232
     19 H13        -0.0000    1.6910    1.2970 H         1<O>11         0.0232
     20 H14         0.8840    2.0610   -0.1860 H         1<O>11         0.0232
@<TRIPOS>BOND
     1    1    2 1
     2    1    5 1
     3    1    3 1
     4    1    4 1
     5    5    7 1
     6    5    8 1
     7    5    6 1
     8    8    9 1
     9    8   10 1
    10   10   13 1
    11   10   12 1
    12   10   11 1
    13   13   14 1
    14   13   15 1
    15   13   16 1
    16    8   17 1
    17   17   20 1
    18   17   18 1
    19   17   19 1
