@<TRIPOS>MOLECULE
C6H14_1_1
 20 19 0 0 0
SMALL
USER_CHARGES
****
VDW energy = 4.32
@<TRIPOS>ATOM
   1 C1        3.1900    -0.2100     0.0000  C.3     1  <O>11      -0.0653
   2 H1        3.2840    -0.8520    -0.8830  H       1  <O>11       0.0230
   3 H2        3.2840    -0.8520     0.8830  H       1  <O>11       0.0230
   4 H3        4.0460     0.4740     0.0000  H       1  <O>11       0.0230
   5 C2        1.8700     0.5580     0.0000  C.3     1  <O>11      -0.0559
   6 H4        1.8250     1.2240     0.8840  H       1  <O>11       0.0263
   7 H5        1.8250     1.2240    -0.8840  H       1  <O>11       0.0263
   8 C3        0.6610    -0.3890     0.0000  C.3     1  <O>11      -0.0533
   9 H6        0.7080    -1.0550     0.8820  H       1  <O>11       0.0265
  10 H7        0.7080    -1.0550    -0.8820  H       1  <O>11       0.0265
  11 C4       -0.6610     0.3890     0.0000  C.3     1  <O>11      -0.0533
  12 H8       -0.7080     1.0550    -0.8820  H       1  <O>11       0.0265
  13 H9       -0.7080     1.0550     0.8820  H       1  <O>11       0.0265
  14 C5       -1.8700    -0.5580     0.0000  C.3     1  <O>11      -0.0559
  15 H10      -1.8250    -1.2240     0.8840  H       1  <O>11       0.0263
  16 H11      -1.8250    -1.2240    -0.8840  H       1  <O>11       0.0263
  17 C6       -3.1900     0.2100     0.0000  C.3     1  <O>11      -0.0653
  18 H12      -3.2840     0.8520    -0.8830  H       1  <O>11       0.0230
  19 H13      -4.0460    -0.4740     0.0000  H       1  <O>11       0.0230
  20 H14      -3.2840     0.8520     0.8830  H       1  <O>11       0.0230
@<TRIPOS>BOND
     1     1     2    1
     2     1     4    1
     3     1     3    1
     4     1     5    1
     5     5     6    1
     6     5     7    1
     7     8    10    1
     8     5     8    1
     9     8     9    1
    10     8    11    1
    11    11    12    1
    12    11    13    1
    13    14    16    1
    14    11    14    1
    15    14    15    1
    16    14    17    1
    17    17    18    1
    18    17    19    1
    19    17    20    1
@<TRIPOS>MOLECULE
C6H14_1_2
 20 19 0 0 0
SMALL
USER_CHARGES
****
VDW energy = 10.97
@<TRIPOS>ATOM
   1 C1        1.5063     1.9409     0.5359  C.3     1  <O>11      -0.0653
   2 H1        1.1365     1.8902     1.5663  H       1  <O>11       0.0230
   3 H2        0.7252     2.4156    -0.0687  H       1  <O>11       0.0230
   4 H3        2.3752     2.6086     0.5318  H       1  <O>11       0.0230
   5 C2        1.8701     0.5579     0.0000  C.3     1  <O>11      -0.0559
   6 H4        2.2751     0.6498    -1.0268  H       1  <O>11       0.0263
   7 H5        2.6868     0.1240     0.6096  H       1  <O>11       0.0263
   8 C3        0.6614    -0.3885    -0.0000  C.3     1  <O>11      -0.0533
   9 H6        0.7079    -1.0550     0.8825  H       1  <O>11       0.0265
  10 H7        0.7079    -1.0550    -0.8825  H       1  <O>11       0.0265
  11 C4       -0.6614     0.3885     0.0000  C.3     1  <O>11      -0.0533
  12 H8       -0.7079     1.0550    -0.8825  H       1  <O>11       0.0265
  13 H9       -0.7079     1.0550     0.8825  H       1  <O>11       0.0265
  14 C5       -1.8701    -0.5579     0.0000  C.3     1  <O>11      -0.0559
  15 H10      -1.8254    -1.2242     0.8837  H       1  <O>11       0.0263
  16 H11      -1.8254    -1.2242    -0.8837  H       1  <O>11       0.0263
  17 C6       -3.1903     0.2098     0.0000  C.3     1  <O>11      -0.0653
  18 H12      -3.2838     0.8522    -0.8830  H       1  <O>11       0.0230
  19 H13      -4.0464    -0.4742     0.0000  H       1  <O>11       0.0230
  20 H14      -3.2838     0.8522     0.8830  H       1  <O>11       0.0230
@<TRIPOS>BOND
     1     1     2    1
     2     1     4    1
     3     1     3    1
     4     1     5    1
     5     5     6    1
     6     5     7    1
     7     8    10    1
     8     5     8    1
     9     8     9    1
    10     8    11    1
    11    11    12    1
    12    11    13    1
    13    14    16    1
    14    11    14    1
    15    14    15    1
    16    14    17    1
    17    17    18    1
    18    17    19    1
    19    17    20    1
@<TRIPOS>MOLECULE
C6H14_1_3
 20 19 0 0 0
SMALL
USER_CHARGES
****
VDW energy = 10.97
@<TRIPOS>ATOM
   1 C1        1.5063     1.9409    -0.5359  C.3     1  <O>11      -0.0653
   2 H1        0.7252     2.4156     0.0687  H       1  <O>11       0.0230
   3 H2        1.1365     1.8902    -1.5663  H       1  <O>11       0.0230
   4 H3        2.3752     2.6086    -0.5318  H       1  <O>11       0.0230
   5 C2        1.8701     0.5579     0.0000  C.3     1  <O>11      -0.0559
   6 H4        2.6868     0.1240    -0.6096  H       1  <O>11       0.0263
   7 H5        2.2751     0.6498     1.0268  H       1  <O>11       0.0263
   8 C3        0.6614    -0.3885    -0.0000  C.3     1  <O>11      -0.0533
   9 H6        0.7079    -1.0550     0.8825  H       1  <O>11       0.0265
  10 H7        0.7079    -1.0550    -0.8825  H       1  <O>11       0.0265
  11 C4       -0.6614     0.3885     0.0000  C.3     1  <O>11      -0.0533
  12 H8       -0.7079     1.0550    -0.8825  H       1  <O>11       0.0265
  13 H9       -0.7079     1.0550     0.8825  H       1  <O>11       0.0265
  14 C5       -1.8701    -0.5579     0.0000  C.3     1  <O>11      -0.0559
  15 H10      -1.8254    -1.2242     0.8837  H       1  <O>11       0.0263
  16 H11      -1.8254    -1.2242    -0.8837  H       1  <O>11       0.0263
  17 C6       -3.1903     0.2098     0.0000  C.3     1  <O>11      -0.0653
  18 H12      -3.2838     0.8522    -0.8830  H       1  <O>11       0.0230
  19 H13      -4.0464    -0.4742     0.0000  H       1  <O>11       0.0230
  20 H14      -3.2838     0.8522     0.8830  H       1  <O>11       0.0230
@<TRIPOS>BOND
     1     1     2    1
     2     1     4    1
     3     1     3    1
     4     1     5    1
     5     5     6    1
     6     5     7    1
     7     8    10    1
     8     5     8    1
     9     8     9    1
    10     8    11    1
    11    11    12    1
    12    11    13    1
    13    14    16    1
    14    11    14    1
    15    14    15    1
    16    14    17    1
    17    17    18    1
    18    17    19    1
    19    17    20    1
@<TRIPOS>MOLECULE
C6H14_1_4
 20 19 0 0 0
SMALL
USER_CHARGES
****
VDW energy = 10.97
@<TRIPOS>ATOM
   1 C1       -0.1883     4.1052    -1.0752  C.3     1  <O>11      -0.0653
   2 H1       -0.9694     4.5798    -0.4705  H       1  <O>11       0.0230
   3 H2       -0.5581     4.0545    -2.1056  H       1  <O>11       0.0230
   4 H3        0.6806     4.7728    -1.0711  H       1  <O>11       0.0230
   5 C2        0.1755     2.7222    -0.5393  C.3     1  <O>11      -0.0559
   6 H4        0.9922     2.2883    -1.1488  H       1  <O>11       0.0263
   7 H5        0.5806     2.8141     0.4875  H       1  <O>11       0.0263
   8 C3       -1.0332     1.7758    -0.5393  C.3     1  <O>11      -0.0533
   9 H6       -1.4382     1.6859    -1.5655  H       1  <O>11       0.0265
  10 H7       -1.8494     2.2110     0.0687  H       1  <O>11       0.0265
  11 C4       -0.6614     0.3885     0.0000  C.3     1  <O>11      -0.0533
  12 H8       -0.2564     0.4783     1.0262  H       1  <O>11       0.0265
  13 H9        0.1548    -0.0468    -0.6080  H       1  <O>11       0.0265
  14 C5       -1.8701    -0.5579     0.0000  C.3     1  <O>11      -0.0559
  15 H10      -1.8254    -1.2242     0.8837  H       1  <O>11       0.0263
  16 H11      -1.8254    -1.2242    -0.8837  H       1  <O>11       0.0263
  17 C6       -3.1903     0.2098     0.0000  C.3     1  <O>11      -0.0653
  18 H12      -3.2838     0.8522    -0.8830  H       1  <O>11       0.0230
  19 H13      -4.0464    -0.4742     0.0000  H       1  <O>11       0.0230
  20 H14      -3.2838     0.8522     0.8830  H       1  <O>11       0.0230
@<TRIPOS>BOND
     1     1     2    1
     2     1     4    1
     3     1     3    1
     4     1     5    1
     5     5     6    1
     6     5     7    1
     7     8    10    1
     8     5     8    1
     9     8     9    1
    10     8    11    1
    11    11    12    1
    12    11    13    1
    13    14    16    1
    14    11    14    1
    15    14    15    1
    16    14    17    1
    17    17    18    1
    18    17    19    1
    19    17    20    1
@<TRIPOS>MOLECULE
C6H14_1_5
 20 19 0 0 0
SMALL
USER_CHARGES
****
VDW energy = 10.97
@<TRIPOS>ATOM
   1 C1       -0.1883     4.1052     1.0752  C.3     1  <O>11      -0.0653
   2 H1       -0.5581     4.0545     2.1056  H       1  <O>11       0.0230
   3 H2       -0.9694     4.5798     0.4705  H       1  <O>11       0.0230
   4 H3        0.6806     4.7728     1.0711  H       1  <O>11       0.0230
   5 C2        0.1755     2.7222     0.5393  C.3     1  <O>11      -0.0559
   6 H4        0.5806     2.8141    -0.4875  H       1  <O>11       0.0263
   7 H5        0.9922     2.2883     1.1488  H       1  <O>11       0.0263
   8 C3       -1.0332     1.7758     0.5393  C.3     1  <O>11      -0.0533
   9 H6       -1.8494     2.2110    -0.0687  H       1  <O>11       0.0265
  10 H7       -1.4382     1.6859     1.5655  H       1  <O>11       0.0265
  11 C4       -0.6614     0.3885    -0.0000  C.3     1  <O>11      -0.0533
  12 H8        0.1548    -0.0468     0.6080  H       1  <O>11       0.0265
  13 H9       -0.2564     0.4783    -1.0262  H       1  <O>11       0.0265
  14 C5       -1.8701    -0.5579     0.0000  C.3     1  <O>11      -0.0559
  15 H10      -1.8254    -1.2242     0.8837  H       1  <O>11       0.0263
  16 H11      -1.8254    -1.2242    -0.8837  H       1  <O>11       0.0263
  17 C6       -3.1903     0.2098     0.0000  C.3     1  <O>11      -0.0653
  18 H12      -3.2838     0.8522    -0.8830  H       1  <O>11       0.0230
  19 H13      -4.0464    -0.4742     0.0000  H       1  <O>11       0.0230
  20 H14      -3.2838     0.8522     0.8830  H       1  <O>11       0.0230
@<TRIPOS>BOND
     1     1     2    1
     2     1     4    1
     3     1     3    1
     4     1     5    1
     5     5     6    1
     6     5     7    1
     7     8    10    1
     8     5     8    1
     9     8     9    1
    10     8    11    1
    11    11    12    1
    12    11    13    1
    13    14    16    1
    14    11    14    1
    15    14    15    1
    16    14    17    1
    17    17    18    1
    18    17    19    1
    19    17    20    1
@<TRIPOS>MOLECULE
C6H14_1_6
 20 19 0 0 0
SMALL
USER_CHARGES
****
VDW energy = 11.93
@<TRIPOS>ATOM
   1 C1        1.7907    -2.5926     0.5422  C.3     1  <O>11      -0.0653
   2 H1        2.5472    -2.1062     1.1683  H       1  <O>11       0.0230
   3 H2        2.2093    -2.6815    -0.4668  H       1  <O>11       0.0230
   4 H3        1.6485    -3.6080     0.9288  H       1  <O>11       0.0230
   5 C2        0.4770    -1.8138     0.5396  C.3     1  <O>11      -0.0559
   6 H4       -0.2751    -2.3518    -0.0700  H       1  <O>11       0.0263
   7 H5        0.0631    -1.7760     1.5664  H       1  <O>11       0.0263
   8 C3        0.6614    -0.3885     0.0000  C.3     1  <O>11      -0.0533
   9 H6        1.0766    -0.4273    -1.0253  H       1  <O>11       0.0265
  10 H7        1.4144     0.1477     0.6088  H       1  <O>11       0.0265
  11 C4       -0.6614     0.3885     0.0000  C.3     1  <O>11      -0.0533
  12 H8       -0.7079     1.0550    -0.8825  H       1  <O>11       0.0265
  13 H9       -0.7079     1.0550     0.8825  H       1  <O>11       0.0265
  14 C5       -1.8701    -0.5579     0.0000  C.3     1  <O>11      -0.0559
  15 H10      -1.8254    -1.2242     0.8837  H       1  <O>11       0.0263
  16 H11      -1.8254    -1.2242    -0.8837  H       1  <O>11       0.0263
  17 C6       -3.1903     0.2098     0.0000  C.3     1  <O>11      -0.0653
  18 H12      -3.2838     0.8522    -0.8830  H       1  <O>11       0.0230
  19 H13      -4.0464    -0.4742     0.0000  H       1  <O>11       0.0230
  20 H14      -3.2838     0.8522     0.8830  H       1  <O>11       0.0230
@<TRIPOS>BOND
     1     1     2    1
     2     1     4    1
     3     1     3    1
     4     1     5    1
     5     5     6    1
     6     5     7    1
     7     8    10    1
     8     5     8    1
     9     8     9    1
    10     8    11    1
    11    11    12    1
    12    11    13    1
    13    14    16    1
    14    11    14    1
    15    14    15    1
    16    14    17    1
    17    17    18    1
    18    17    19    1
    19    17    20    1
@<TRIPOS>MOLECULE
C6H14_1_7
 20 19 0 0 0
SMALL
USER_CHARGES
****
VDW energy = 11.93
@<TRIPOS>ATOM
   1 C1        1.7907    -2.5926    -0.5422  C.3     1  <O>11      -0.0653
   2 H1        2.2093    -2.6815     0.4668  H       1  <O>11       0.0230
   3 H2        2.5472    -2.1062    -1.1683  H       1  <O>11       0.0230
   4 H3        1.6485    -3.6080    -0.9288  H       1  <O>11       0.0230
   5 C2        0.4770    -1.8138    -0.5396  C.3     1  <O>11      -0.0559
   6 H4        0.0631    -1.7760    -1.5664  H       1  <O>11       0.0263
   7 H5       -0.2751    -2.3518     0.0700  H       1  <O>11       0.0263
   8 C3        0.6614    -0.3885    -0.0000  C.3     1  <O>11      -0.0533
   9 H6        1.4144     0.1477    -0.6088  H       1  <O>11       0.0265
  10 H7        1.0766    -0.4273     1.0253  H       1  <O>11       0.0265
  11 C4       -0.6614     0.3885     0.0000  C.3     1  <O>11      -0.0533
  12 H8       -0.7079     1.0550    -0.8825  H       1  <O>11       0.0265
  13 H9       -0.7079     1.0550     0.8825  H       1  <O>11       0.0265
  14 C5       -1.8701    -0.5579     0.0000  C.3     1  <O>11      -0.0559
  15 H10      -1.8254    -1.2242     0.8837  H       1  <O>11       0.0263
  16 H11      -1.8254    -1.2242    -0.8837  H       1  <O>11       0.0263
  17 C6       -3.1903     0.2098     0.0000  C.3     1  <O>11      -0.0653
  18 H12      -3.2838     0.8522    -0.8830  H       1  <O>11       0.0230
  19 H13      -4.0464    -0.4742     0.0000  H       1  <O>11       0.0230
  20 H14      -3.2838     0.8522     0.8830  H       1  <O>11       0.0230
@<TRIPOS>BOND
     1     1     2    1
     2     1     4    1
     3     1     3    1
     4     1     5    1
     5     5     6    1
     6     5     7    1
     7     8    10    1
     8     5     8    1
     9     8     9    1
    10     8    11    1
    11    11    12    1
    12    11    13    1
    13    14    16    1
    14    11    14    1
    15    14    15    1
    16    14    17    1
    17    17    18    1
    18    17    19    1
    19    17    20    1
@<TRIPOS>MOLECULE
C6H14_1_8
 20 19 0 0 0
SMALL
USER_CHARGES
****
VDW energy = 17.66
@<TRIPOS>ATOM
   1 C1        1.2460     2.2733    -0.4531  C.3     1  <O>11      -0.0653
   2 H1        0.8595     2.2440    -1.4782  H       1  <O>11       0.0230
   3 H2        1.6212     1.2712    -0.2164  H       1  <O>11       0.0230
   4 H3        2.1040     2.9549    -0.4455  H       1  <O>11       0.0230
   5 C2        0.1755     2.7222     0.5393  C.3     1  <O>11      -0.0559
   6 H4        0.6092     2.7775     1.5570  H       1  <O>11       0.0263
   7 H5       -0.1532     3.7511     0.2942  H       1  <O>11       0.0263
   8 C3       -1.0332     1.7758     0.5393  C.3     1  <O>11      -0.0533
   9 H6       -1.8494     2.2110    -0.0687  H       1  <O>11       0.0265
  10 H7       -1.4382     1.6859     1.5655  H       1  <O>11       0.0265
  11 C4       -0.6614     0.3885     0.0000  C.3     1  <O>11      -0.0533
  12 H8        0.1548    -0.0468     0.6080  H       1  <O>11       0.0265
  13 H9       -0.2564     0.4783    -1.0262  H       1  <O>11       0.0265
  14 C5       -1.8701    -0.5579     0.0000  C.3     1  <O>11      -0.0559
  15 H10      -1.8254    -1.2242     0.8837  H       1  <O>11       0.0263
  16 H11      -1.8254    -1.2242    -0.8837  H       1  <O>11       0.0263
  17 C6       -3.1903     0.2098     0.0000  C.3     1  <O>11      -0.0653
  18 H12      -3.2838     0.8522    -0.8830  H       1  <O>11       0.0230
  19 H13      -4.0464    -0.4742     0.0000  H       1  <O>11       0.0230
  20 H14      -3.2838     0.8522     0.8830  H       1  <O>11       0.0230
@<TRIPOS>BOND
     1     1     2    1
     2     1     4    1
     3     1     3    1
     4     1     5    1
     5     5     6    1
     6     5     7    1
     7     8    10    1
     8     5     8    1
     9     8     9    1
    10     8    11    1
    11    11    12    1
    12    11    13    1
    13    14    16    1
    14    11    14    1
    15    14    15    1
    16    14    17    1
    17    17    18    1
    18    17    19    1
    19    17    20    1
@<TRIPOS>MOLECULE
C6H14_1_9
 20 19 0 0 0
SMALL
USER_CHARGES
****
VDW energy = 17.66
@<TRIPOS>ATOM
   1 C1        1.2460     2.2733     0.4531  C.3     1  <O>11      -0.0653
   2 H1        1.6212     1.2712     0.2164  H       1  <O>11       0.0230
   3 H2        0.8595     2.2440     1.4782  H       1  <O>11       0.0230
   4 H3        2.1040     2.9549     0.4455  H       1  <O>11       0.0230
   5 C2        0.1755     2.7222    -0.5393  C.3     1  <O>11      -0.0559
   6 H4       -0.1532     3.7511    -0.2942  H       1  <O>11       0.0263
   7 H5        0.6092     2.7775    -1.5570  H       1  <O>11       0.0263
   8 C3       -1.0332     1.7758    -0.5393  C.3     1  <O>11      -0.0533
   9 H6       -1.4382     1.6859    -1.5655  H       1  <O>11       0.0265
  10 H7       -1.8494     2.2110     0.0687  H       1  <O>11       0.0265
  11 C4       -0.6614     0.3885     0.0000  C.3     1  <O>11      -0.0533
  12 H8       -0.2564     0.4783     1.0262  H       1  <O>11       0.0265
  13 H9        0.1548    -0.0468    -0.6080  H       1  <O>11       0.0265
  14 C5       -1.8701    -0.5579     0.0000  C.3     1  <O>11      -0.0559
  15 H10      -1.8254    -1.2242     0.8837  H       1  <O>11       0.0263
  16 H11      -1.8254    -1.2242    -0.8837  H       1  <O>11       0.0263
  17 C6       -3.1903     0.2098     0.0000  C.3     1  <O>11      -0.0653
  18 H12      -3.2838     0.8522    -0.8830  H       1  <O>11       0.0230
  19 H13      -4.0464    -0.4742     0.0000  H       1  <O>11       0.0230
  20 H14      -3.2838     0.8522     0.8830  H       1  <O>11       0.0230
@<TRIPOS>BOND
     1     1     2    1
     2     1     4    1
     3     1     3    1
     4     1     5    1
     5     5     6    1
     6     5     7    1
     7     8    10    1
     8     5     8    1
     9     8     9    1
    10     8    11    1
    11    11    12    1
    12    11    13    1
    13    14    16    1
    14    11    14    1
    15    14    15    1
    16    14    17    1
    17    17    18    1
    18    17    19    1
    19    17    20    1
@<TRIPOS>MOLECULE
C6H14_1_10
 20 19 0 0 0
SMALL
USER_CHARGES
****
VDW energy = 17.67
@<TRIPOS>ATOM
   1 C1        1.4957     1.9545    -0.5393  C.3     1  <O>11      -0.0653
   2 H1        1.5892     1.3121    -1.4223  H       1  <O>11       0.0230
   3 H2        1.5892     1.3121     0.3437  H       1  <O>11       0.0230
   4 H3        2.3518     2.6385    -0.5393  H       1  <O>11       0.0230
   5 C2        0.1755     2.7222    -0.5393  C.3     1  <O>11      -0.0559
   6 H4        0.1308     3.3885     0.3444  H       1  <O>11       0.0263
   7 H5        0.1308     3.3885    -1.4230  H       1  <O>11       0.0263
   8 C3       -1.0332     1.7758    -0.5393  C.3     1  <O>11      -0.0533
   9 H6       -1.4382     1.6859    -1.5655  H       1  <O>11       0.0265
  10 H7       -1.8494     2.2110     0.0687  H       1  <O>11       0.0265
  11 C4       -0.6614     0.3885     0.0000  C.3     1  <O>11      -0.0533
  12 H8       -0.2564     0.4783     1.0262  H       1  <O>11       0.0265
  13 H9        0.1548    -0.0468    -0.6080  H       1  <O>11       0.0265
  14 C5       -1.8701    -0.5579     0.0000  C.3     1  <O>11      -0.0559
  15 H10      -1.8254    -1.2242     0.8837  H       1  <O>11       0.0263
  16 H11      -1.8254    -1.2242    -0.8837  H       1  <O>11       0.0263
  17 C6       -3.1903     0.2098     0.0000  C.3     1  <O>11      -0.0653
  18 H12      -3.2838     0.8522    -0.8830  H       1  <O>11       0.0230
  19 H13      -4.0464    -0.4742     0.0000  H       1  <O>11       0.0230
  20 H14      -3.2838     0.8522     0.8830  H       1  <O>11       0.0230
@<TRIPOS>BOND
     1     1     2    1
     2     1     4    1
     3     1     3    1
     4     1     5    1
     5     5     6    1
     6     5     7    1
     7     8    10    1
     8     5     8    1
     9     8     9    1
    10     8    11    1
    11    11    12    1
    12    11    13    1
    13    14    16    1
    14    11    14    1
    15    14    15    1
    16    14    17    1
    17    17    18    1
    18    17    19    1
    19    17    20    1
@<TRIPOS>MOLECULE
C6H14_1_11
 20 19 0 0 0
SMALL
USER_CHARGES
****
VDW energy = 17.67
@<TRIPOS>ATOM
   1 C1        1.4957     1.9545     0.5393  C.3     1  <O>11      -0.0653
   2 H1        1.5892     1.3121    -0.3437  H       1  <O>11       0.0230
   3 H2        1.5892     1.3121     1.4223  H       1  <O>11       0.0230
   4 H3        2.3518     2.6385     0.5393  H       1  <O>11       0.0230
   5 C2        0.1755     2.7222     0.5393  C.3     1  <O>11      -0.0559
   6 H4        0.1308     3.3885     1.4230  H       1  <O>11       0.0263
   7 H5        0.1308     3.3885    -0.3444  H       1  <O>11       0.0263
   8 C3       -1.0332     1.7758     0.5393  C.3     1  <O>11      -0.0533
   9 H6       -1.8494     2.2110    -0.0687  H       1  <O>11       0.0265
  10 H7       -1.4382     1.6859     1.5655  H       1  <O>11       0.0265
  11 C4       -0.6614     0.3885    -0.0000  C.3     1  <O>11      -0.0533
  12 H8        0.1548    -0.0468     0.6080  H       1  <O>11       0.0265
  13 H9       -0.2564     0.4783    -1.0262  H       1  <O>11       0.0265
  14 C5       -1.8701    -0.5579     0.0000  C.3     1  <O>11      -0.0559
  15 H10      -1.8254    -1.2242     0.8837  H       1  <O>11       0.0263
  16 H11      -1.8254    -1.2242    -0.8837  H       1  <O>11       0.0263
  17 C6       -3.1903     0.2098     0.0000  C.3     1  <O>11      -0.0653
  18 H12      -3.2838     0.8522    -0.8830  H       1  <O>11       0.0230
  19 H13      -4.0464    -0.4742     0.0000  H       1  <O>11       0.0230
  20 H14      -3.2838     0.8522     0.8830  H       1  <O>11       0.0230
@<TRIPOS>BOND
     1     1     2    1
     2     1     4    1
     3     1     3    1
     4     1     5    1
     5     5     6    1
     6     5     7    1
     7     8    10    1
     8     5     8    1
     9     8     9    1
    10     8    11    1
    11    11    12    1
    12    11    13    1
    13    14    16    1
    14    11    14    1
    15    14    15    1
    16    14    17    1
    17    17    18    1
    18    17    19    1
    19    17    20    1
