@<TRIPOS>MOLECULE
dummy
 20 19 0 0 0
SMALL
USER_CHARGES
****
VDW energy = 4.32
@<TRIPOS>ATOM
      1 C1          3.1900   -0.2100    0.0000 C.3       1<O>11        -0.0653
      2 H1          3.2840   -0.8520   -0.8830 H         1<O>11         0.0230
      3 H2          3.2840   -0.8520    0.8830 H         1<O>11         0.0230
      4 H3          4.0460    0.4740    0.0000 H         1<O>11         0.0230
      5 C2          1.8700    0.5580    0.0000 C.3       1<O>11        -0.0559
      6 H4          1.8250    1.2240    0.8840 H         1<O>11         0.0263
      7 H5          1.8250    1.2240   -0.8840 H         1<O>11         0.0263
      8 C3          0.6610   -0.3890    0.0000 C.3       1<O>11        -0.0533
      9 H6          0.7080   -1.0550    0.8820 H         1<O>11         0.0265
     10 H7          0.7080   -1.0550   -0.8820 H         1<O>11         0.0265
     11 C4         -0.6610    0.3890    0.0000 C.3       1<O>11        -0.0533
     12 H8         -0.7080    1.0550   -0.8820 H         1<O>11         0.0265
     13 H9         -0.7080    1.0550    0.8820 H         1<O>11         0.0265
     14 C5         -1.8700   -0.5580    0.0000 C.3       1<O>11        -0.0559
     15 H10        -1.8250   -1.2240    0.8840 H         1<O>11         0.0263
     16 H11        -1.8250   -1.2240   -0.8840 H         1<O>11         0.0263
     17 C6         -3.1900    0.2100    0.0000 C.3       1<O>11        -0.0653
     18 H12        -3.2840    0.8520   -0.8830 H         1<O>11         0.0230
     19 H13        -4.0460   -0.4740    0.0000 H         1<O>11         0.0230
     20 H14        -3.2840    0.8520    0.8830 H         1<O>11         0.0230
@<TRIPOS>BOND
     1    1    2 1
     2    1    4 1
     3    1    3 1
     4    1    5 1
     5    5    6 1
     6    5    7 1
     7    8   10 1
     8    5    8 1
     9    8    9 1
    10    8   11 1
    11   11   12 1
    12   11   13 1
    13   14   16 1
    14   11   14 1
    15   14   15 1
    16   14   17 1
    17   17   18 1
    18   17   19 1
    19   17   20 1
