@<TRIPOS>MOLECULE
C6H14_5_1
 20 19 0 0 0
SMALL
USER_CHARGES
****
VDW energy = 10.71
@<TRIPOS>ATOM
      1 C1          0.4792   -0.9037    1.2989 C.3       1<O>11        -0.0601
      2 H1         -0.3375   -1.6601    1.3152 H         1<O>11         0.0235
      3 H2          0.3840   -0.2641    2.2065 H         1<O>11         0.0235
      4 H3          1.4468   -1.4538    1.3606 H         1<O>11         0.0235
      5 C2          0.4189   -0.0435    0.0168 C.3       1<O>11        -0.0380
      6 C3         -0.8617    0.8424   -0.0126 C.3       1<O>11        -0.0510
      7 H4         -0.8387    1.4881   -0.9221 H         1<O>11         0.0268
      8 H5         -0.8550    1.5231    0.8715 H         1<O>11         0.0268
      9 C4         -2.2106    0.1150   -0.0111 C.3       1<O>11        -0.0648
     10 H6         -2.3296   -0.5069    0.9034 H         1<O>11         0.0230
     11 H7         -3.0313    0.8678   -0.0243 H         1<O>11         0.0230
     12 H8         -2.3192   -0.5274   -0.9128 H         1<O>11         0.0230
     13 C5          1.6497    0.8929    0.0031 C.3       1<O>11        -0.0601
     14 H9          1.6571    1.5238   -0.9159 H         1<O>11         0.0235
     15 H10         1.6422    1.5698    0.8887 H         1<O>11         0.0235
     16 H11         2.5982    0.3075    0.0258 H         1<O>11         0.0235
     17 C6          0.4965   -0.9635   -1.2220 C.3       1<O>11        -0.0601
     18 H12         1.4629   -1.5188   -1.2418 H         1<O>11         0.0235
     19 H13        -0.3229   -1.7172   -1.2156 H         1<O>11         0.0235
     20 H14         0.4181   -0.3672   -2.1602 H         1<O>11         0.0235
@<TRIPOS>BOND
     1    1    3 1
     2    1    4 1
     3    1    2 1
     4    5   13 1
     5    5   17 1
     6    1    5 1
     7    6    7 1
     8    6    8 1
     9    5    6 1
    10    6    9 1
    11    9   10 1
    12    9   11 1
    13    9   12 1
    14   13   16 1
    15   13   14 1
    16   13   15 1
    17   17   18 1
    18   17   19 1
    19   17   20 1
@<TRIPOS>MOLECULE
C6H14_5_2
 20 19 0 0 0
SMALL
USER_CHARGES
****
VDW energy = 12.49
@<TRIPOS>ATOM
      1 C1          1.5545    0.7424   -0.7981 C.3       1<O>11        -0.0601
      2 H1          1.6905    1.7445   -0.3293 H         1<O>11         0.0235
      3 H2          1.3246    0.8931   -1.8783 H         1<O>11         0.0235
      4 H3          2.5228    0.1949   -0.7260 H         1<O>11         0.0235
      5 C2          0.4197   -0.0418   -0.0988 C.3       1<O>11        -0.0380
      6 C3         -0.8942    0.7826   -0.2402 C.3       1<O>11        -0.0510
      7 H4         -1.1041    0.9526   -1.3226 H         1<O>11         0.0268
      8 H5         -0.7474    1.7856    0.2255 H         1<O>11         0.0268
      9 C4         -2.1627    0.1809    0.3738 C.3       1<O>11        -0.0648
     10 H6         -2.0464    0.0318    1.4699 H         1<O>11         0.0230
     11 H7         -3.0140    0.8802    0.2104 H         1<O>11         0.0230
     12 H8         -2.4178   -0.7892   -0.1072 H         1<O>11         0.0230
     13 C5          0.2939   -1.4230   -0.7794 C.3       1<O>11        -0.0601
     14 H9         -0.4485   -2.0644   -0.2531 H         1<O>11         0.0235
     15 H10        -0.0281   -1.3108   -1.8403 H         1<O>11         0.0235
     16 H11         1.2704   -1.9604   -0.7667 H         1<O>11         0.0235
     17 C6          0.8069   -0.2340    1.3846 C.3       1<O>11        -0.0601
     18 H12         1.7995   -0.7334    1.4723 H         1<O>11         0.0235
     19 H13         0.8645    0.7489    1.9067 H         1<O>11         0.0235
     20 H14         0.0639   -0.8704    1.9158 H         1<O>11         0.0235
@<TRIPOS>BOND
     1    1    3 1
     2    1    4 1
     3    1    2 1
     4    5   13 1
     5    5   17 1
     6    1    5 1
     7    6    7 1
     8    6    8 1
     9    5    6 1
    10    6    9 1
    11    9   10 1
    12    9   11 1
    13    9   12 1
    14   13   16 1
    15   13   14 1
    16   13   15 1
    17   17   18 1
    18   17   19 1
    19   17   20 1
@<TRIPOS>MOLECULE
C6H14_5_3
 20 19 0 0 0
SMALL
USER_CHARGES
****
VDW energy = 12.74
@<TRIPOS>ATOM
      1 C1          0.7500   -0.2653   -1.4299 C.3       1<O>11        -0.0601
      2 H1          0.7904    0.7113   -1.9651 H         1<O>11         0.0235
      3 H2         -0.0134   -0.9060   -1.9262 H         1<O>11         0.0235
      4 H3          1.7377   -0.7682   -1.5476 H         1<O>11         0.0235
      5 C2          0.4165   -0.0552    0.0640 C.3       1<O>11        -0.0380
      6 C3         -0.8832    0.7841    0.2434 C.3       1<O>11        -0.0510
      7 H4         -0.7377    1.7869   -0.2235 H         1<O>11         0.0268
      8 H5         -1.0613    0.9533    1.3316 H         1<O>11         0.0268
      9 C4         -2.1742    0.1997   -0.3394 C.3       1<O>11        -0.0648
     10 H6         -2.4190   -0.7782    0.1307 H         1<O>11         0.0230
     11 H7         -3.0160    0.8999   -0.1357 H         1<O>11         0.0230
     12 H8         -2.0929    0.0713   -1.4414 H         1<O>11         0.0230
     13 C5          0.3000   -1.4288    0.7617 C.3       1<O>11        -0.0601
     14 H9          0.0150   -1.3037    1.8317 H         1<O>11         0.0235
     15 H10        -0.4660   -2.0677    0.2671 H         1<O>11         0.0235
     16 H11         1.2701   -1.9762    0.7213 H         1<O>11         0.0235
     17 C6          1.5824    0.7234    0.7169 C.3       1<O>11        -0.0601
     18 H12         2.5419    0.1647    0.6183 H         1<O>11         0.0235
     19 H13         1.7134    1.7192    0.2334 H         1<O>11         0.0235
     20 H14         1.3902    0.8874    1.8025 H         1<O>11         0.0235
@<TRIPOS>BOND
     1    1    3 1
     2    1    4 1
     3    1    2 1
     4    5   13 1
     5    5   17 1
     6    1    5 1
     7    6    7 1
     8    6    8 1
     9    5    6 1
    10    6    9 1
    11    9   10 1
    12    9   11 1
    13    9   12 1
    14   13   16 1
    15   13   14 1
    16   13   15 1
    17   17   18 1
    18   17   19 1
    19   17   20 1
