@<TRIPOS>MOLECULE
C6H14_5_1
   20    19     0     0     0
SMALL
NO_CHARGES

VDW energy = no energy computed
@<TRIPOS>ATOM
      1 C1          1.6424    0.9577   -0.0030 C.3       1 <O>         0.0000
      2 H1          1.6443    1.6059    0.8783 H         1 <O>         0.0000
      3 H2          1.6439    1.6010   -0.8878 H         1 <O>         0.0000
      4 H3          2.5867    0.4043   -0.0016 H         1 <O>         0.0000
      5 C2          0.4318   -0.0016   -0.0000 C.3       1 <O>         0.0000
      6 C3         -0.8629    0.8562   -0.0018 C.3       1 <O>         0.0000
      7 H4         -0.8509    1.5231   -0.8857 H         1 <O>         0.0000
      8 H5         -0.8509    1.5266    0.8794 H         1 <O>         0.0000
      9 C4         -2.1575    0.0480   -0.0001 C.3       1 <O>         0.0000
     10 H6         -2.2314   -0.5959    0.8836 H         1 <O>         0.0000
     11 H7         -3.0314    0.7089    0.0009 H         1 <O>         0.0000
     12 H8         -2.2335   -0.5959   -0.8836 H         1 <O>         0.0000
     13 C5          0.4943   -0.8899   -1.2563 C.3       1 <O>         0.0000
     14 H9         -0.3258   -1.6148   -1.2740 H         1 <O>         0.0000
     15 H10         0.4257   -0.2940   -2.1714 H         1 <O>         0.0000
     16 H11         1.4305   -1.4546   -1.2993 H         1 <O>         0.0000
     17 C6          0.4951   -0.8832    1.2610 C.3       1 <O>         0.0000
     18 H12         1.4310   -1.4485    1.3058 H         1 <O>         0.0000
     19 H13         0.4283   -0.2824    2.1730 H         1 <O>         0.0000
     20 H14        -0.3255   -1.6073    1.2835 H         1 <O>         0.0000
@<TRIPOS>BOND
     1    1    3 1
     2    1    4 1
     3    1    2 1
     4    5   13 1
     5    5   17 1
     6    1    5 1
     7    6    7 1
     8    6    8 1
     9    5    6 1
    10    6    9 1
    11    9   10 1
    12    9   11 1
    13    9   12 1
    14   13   16 1
    15   13   14 1
    16   13   15 1
    17   17   18 1
    18   17   19 1
    19   17   20 1

