@<TRIPOS>MOLECULE
C6H14_5_1
 20 19 0 0 0
SMALL
USER_CHARGES
****
VDW energy = 10.71
@<TRIPOS>ATOM
   1 C1        0.4360    -0.8600     1.2840  C.3     1  <O>11      -0.0601
   2 H1       -0.4310    -1.5260     1.3250  H       1  <O>11       0.0235
   3 H2        0.4210    -0.2390     2.1840  H       1  <O>11       0.0235
   4 H3        1.3310    -1.4890     1.3370  H       1  <O>11       0.0235
   5 C2        0.4320    -0.0020    -0.0000  C.3     1  <O>11      -0.0380
   6 C3       -0.8630     0.8560    -0.0020  C.3     1  <O>11      -0.0510
   7 H4       -0.8510     1.5230    -0.8860  H       1  <O>11       0.0268
   8 H5       -0.8510     1.5270     0.8790  H       1  <O>11       0.0268
   9 C4       -2.1580     0.0480    -0.0000  C.3     1  <O>11      -0.0648
  10 H6       -2.2310    -0.5960     0.8840  H       1  <O>11       0.0230
  11 H7       -3.0310     0.7090     0.0010  H       1  <O>11       0.0230
  12 H8       -2.2340    -0.5960    -0.8840  H       1  <O>11       0.0230
  13 C5        1.6790     0.9010    -0.0020  C.3     1  <O>11      -0.0601
  14 H9        1.7370     1.5000    -0.9160  H       1  <O>11       0.0235
  15 H10       1.6730     1.5940     0.8450  H       1  <O>11       0.0235
  16 H11       2.5990     0.3110     0.0610  H       1  <O>11       0.0235
  17 C6        0.4650    -0.9330    -1.2260  C.3     1  <O>11      -0.0601
  18 H12       1.3430    -1.5870    -1.2060  H       1  <O>11       0.0235
  19 H13      -0.4220    -1.5730    -1.2670  H       1  <O>11       0.0235
  20 H14       0.5030    -0.3640    -2.1590  H       1  <O>11       0.0235
@<TRIPOS>BOND
     1     1     3    1
     2     1     4    1
     3     1     2    1
     4     5    13    1
     5     5    17    1
     6     1     5    1
     7     6     7    1
     8     6     8    1
     9     5     6    1
    10     6     9    1
    11     9    10    1
    12     9    11    1
    13     9    12    1
    14    13    16    1
    15    13    14    1
    16    13    15    1
    17    17    18    1
    18    17    19    1
    19    17    20    1
@<TRIPOS>MOLECULE
C6H14_5_2
 20 19 0 0 0
SMALL
USER_CHARGES
****
VDW energy = 12.49
@<TRIPOS>ATOM
   1 C1        1.4651     0.6881    -0.9179  C.3     1  <O>11      -0.0601
   2 H1        1.7059     1.6958    -0.5666  H       1  <O>11       0.0235
   3 H2        1.0974     0.7739    -1.9446  H       1  <O>11       0.0235
   4 H3        2.4022     0.1238    -0.9540  H       1  <O>11       0.0235
   5 C2        0.4318    -0.0016    -0.0000  C.3     1  <O>11      -0.0380
   6 C3       -0.8629     0.8562    -0.0018  C.3     1  <O>11      -0.0510
   7 H4       -0.8509     1.5231    -0.8857  H       1  <O>11       0.0268
   8 H5       -0.8509     1.5266     0.8794  H       1  <O>11       0.0268
   9 C4       -2.1575     0.0480    -0.0001  C.3     1  <O>11      -0.0648
  10 H6       -2.2314    -0.5959     0.8836  H       1  <O>11       0.0230
  11 H7       -3.0314     0.7089     0.0009  H       1  <O>11       0.0230
  12 H8       -2.2335    -0.5959    -0.8836  H       1  <O>11       0.0230
  13 C5        0.1458    -1.4144    -0.5417  C.3     1  <O>11      -0.0601
  14 H9       -0.5535    -1.9556     0.1036  H       1  <O>11       0.0235
  15 H10      -0.2930    -1.3775    -1.5434  H       1  <O>11       0.0235
  16 H11       1.0612    -2.0105    -0.6040  H       1  <O>11       0.0235
  17 C6        1.0134    -0.1006     1.4224  C.3     1  <O>11      -0.0601
  18 H12       1.9588    -0.6516     1.4292  H       1  <O>11       0.0235
  19 H13       1.2054     0.8898     1.8460  H       1  <O>11       0.0235
  20 H14       0.3274    -0.6201     2.0990  H       1  <O>11       0.0235
@<TRIPOS>BOND
     1     1     3    1
     2     1     4    1
     3     1     2    1
     4     5    13    1
     5     5    17    1
     6     1     5    1
     7     6     7    1
     8     6     8    1
     9     5     6    1
    10     6     9    1
    11     9    10    1
    12     9    11    1
    13     9    12    1
    14    13    16    1
    15    13    14    1
    16    13    15    1
    17    17    18    1
    18    17    19    1
    19    17    20    1
@<TRIPOS>MOLECULE
C6H14_5_3
 20 19 0 0 0
SMALL
USER_CHARGES
****
VDW energy = 12.74
@<TRIPOS>ATOM
   1 C1        0.9300    -0.1206    -1.4572  C.3     1  <O>11      -0.0601
   2 H1        1.1540     0.8601    -1.8872  H       1  <O>11       0.0235
   3 H2        0.1861    -0.6019    -2.0988  H       1  <O>11       0.0235
   4 H3        1.8452    -0.7180    -1.5157  H       1  <O>11       0.0235
   5 C2        0.4318    -0.0016    -0.0000  C.3     1  <O>11      -0.0380
   6 C3       -0.8629     0.8562    -0.0018  C.3     1  <O>11      -0.0510
   7 H4       -0.8509     1.5231    -0.8857  H       1  <O>11       0.0268
   8 H5       -0.8509     1.5266     0.8794  H       1  <O>11       0.0268
   9 C4       -2.1575     0.0480    -0.0001  C.3     1  <O>11      -0.0648
  10 H6       -2.2314    -0.5959     0.8836  H       1  <O>11       0.0230
  11 H7       -3.0314     0.7089     0.0009  H       1  <O>11       0.0230
  12 H8       -2.2335    -0.5959    -0.8836  H       1  <O>11       0.0230
  13 C5        0.1458    -1.4121     0.5477  C.3     1  <O>11      -0.0601
  14 H9       -0.1723    -1.3771     1.5945  H       1  <O>11       0.0235
  15 H10      -0.6470    -1.9085    -0.0200  H       1  <O>11       0.0235
  16 H11       1.0353    -2.0473     0.4975  H       1  <O>11       0.0235
  17 C6        1.5258     0.6715     0.8494  C.3     1  <O>11      -0.0601
  18 H12       2.4635     0.1088     0.8107  H       1  <O>11       0.0235
  19 H13       1.7354     1.6870     0.5000  H       1  <O>11       0.0235
  20 H14       1.2290     0.7403     1.9008  H       1  <O>11       0.0235
@<TRIPOS>BOND
     1     1     3    1
     2     1     4    1
     3     1     2    1
     4     5    13    1
     5     5    17    1
     6     1     5    1
     7     6     7    1
     8     6     8    1
     9     5     6    1
    10     6     9    1
    11     9    10    1
    12     9    11    1
    13     9    12    1
    14    13    16    1
    15    13    14    1
    16    13    15    1
    17    17    18    1
    18    17    19    1
    19    17    20    1
