@<TRIPOS>MOLECULE
dummy
 20 19 0 0 0
SMALL
USER_CHARGES
****
VDW energy = 10.71
@<TRIPOS>ATOM
   1 C1        0.4360    -0.8605     1.2838  C.3     1  <O>11      -0.0601
   2 H1       -0.4314    -1.5260     1.3254  H       1  <O>11       0.0235
   3 H2        0.4206    -0.2390     2.1839  H       1  <O>11       0.0235
   4 H3        1.3306    -1.4887     1.3375  H       1  <O>11       0.0235
   5 C2        0.4318    -0.0016    -0.0000  C.3     1  <O>11      -0.0380
   6 C3       -0.8629     0.8562    -0.0018  C.3     1  <O>11      -0.0510
   7 H4       -0.8509     1.5231    -0.8857  H       1  <O>11       0.0268
   8 H5       -0.8509     1.5266     0.8794  H       1  <O>11       0.0268
   9 C4       -2.1575     0.0480    -0.0001  C.3     1  <O>11      -0.0648
  10 H6       -2.2314    -0.5959     0.8836  H       1  <O>11       0.0230
  11 H7       -3.0314     0.7089     0.0009  H       1  <O>11       0.0230
  12 H8       -2.2335    -0.5959    -0.8836  H       1  <O>11       0.0230
  13 C5        1.6793     0.9012    -0.0019  C.3     1  <O>11      -0.0601
  14 H9        1.7374     1.5000    -0.9165  H       1  <O>11       0.0235
  15 H10       1.6727     1.5944     0.8447  H       1  <O>11       0.0235
  16 H11       2.5986     0.3113     0.0614  H       1  <O>11       0.0235
  17 C6        0.4653    -0.9334    -1.2256  C.3     1  <O>11      -0.0601
  18 H12       1.3427    -1.5870    -1.2057  H       1  <O>11       0.0235
  19 H13      -0.4217    -1.5726    -1.2666  H       1  <O>11       0.0235
  20 H14       0.5033    -0.3636    -2.1594  H       1  <O>11       0.0235
@<TRIPOS>BOND
     1     1     3    1
     2     1     4    1
     3     1     2    1
     4     5    13    1
     5     5    17    1
     6     1     5    1
     7     6     7    1
     8     6     8    1
     9     5     6    1
    10     6     9    1
    11     9    10    1
    12     9    11    1
    13     9    12    1
    14    13    16    1
    15    13    14    1
    16    13    15    1
    17    17    18    1
    18    17    19    1
    19    17    20    1
