@<TRIPOS>MOLECULE
C6H14_2_1
 20 19 0 0 0
SMALL
USER_CHARGES
****
VDW energy = 6.31
@<TRIPOS>ATOM
   1 C1        2.1560    -1.0080     0.0320  C.3     1  <O>11      -0.0627
   2 H1        1.9490    -1.9860    -0.4140  H       1  <O>11       0.0232
   3 H2        2.2490    -1.1510     1.1130  H       1  <O>11       0.0232
   4 H3        3.1330    -0.6790    -0.3390  H       1  <O>11       0.0232
   5 C2        1.0590     0.0100    -0.3120  C.3     1  <O>11      -0.0467
   6 H4        0.9960     0.0910    -1.4260  H       1  <O>11       0.0295
   7 C3       -0.3040    -0.4790     0.2220  C.3     1  <O>11      -0.0510
   8 H5       -0.3220    -0.4080     1.3260  H       1  <O>11       0.0268
   9 H6       -0.4270    -1.5540    -0.0080  H       1  <O>11       0.0268
  10 C4       -1.4800     0.3070    -0.3710  C.3     1  <O>11      -0.0557
  11 H7       -1.4690     0.2250    -1.4760  H       1  <O>11       0.0263
  12 H8       -1.3640     1.3860    -0.1470  H       1  <O>11       0.0263
  13 C5       -2.8210    -0.1880     0.1670  C.3     1  <O>11      -0.0653
  14 H9       -2.8790    -0.0880     1.2570  H       1  <O>11       0.0230
  15 H10      -3.6540     0.3810    -0.2600  H       1  <O>11       0.0230
  16 H11      -2.9870    -1.2440    -0.0730  H       1  <O>11       0.0230
  17 C6        1.4190     1.3910     0.2510  C.3     1  <O>11      -0.0627
  18 H12       0.6540     2.1340     0.0040  H       1  <O>11       0.0232
  19 H13       1.5130     1.3690     1.3420  H       1  <O>11       0.0232
  20 H14       2.3710     1.7500    -0.1530  H       1  <O>11       0.0232
@<TRIPOS>BOND
     1     1     4    1
     2     1     3    1
     3     1     2    1
     4     5    17    1
     5     1     5    1
     6     5     6    1
     7     5     7    1
     8     7     8    1
     9     7     9    1
    10    10    11    1
    11     7    10    1
    12    10    12    1
    13    10    13    1
    14    13    14    1
    15    13    15    1
    16    13    16    1
    17    17    19    1
    18    17    20    1
    19    17    18    1
@<TRIPOS>MOLECULE
C6H14_2_2
 20 19 0 0 0
SMALL
USER_CHARGES
****
VDW energy = 11.51
@<TRIPOS>ATOM
   1 C1        1.7453     0.9218     0.6776  C.3     1  <O>11      -0.0627
   2 H1        1.9260     0.4145     1.6309  H       1  <O>11       0.0232
   3 H2        1.1398     1.8102     0.8862  H       1  <O>11       0.0232
   4 H3        2.7136     1.2686     0.3020  H       1  <O>11       0.0232
   5 C2        1.0575    -0.0077    -0.3327  C.3     1  <O>11      -0.0467
   6 H4        1.7098    -0.9042    -0.4818  H       1  <O>11       0.0295
   7 C3       -0.3037    -0.4787     0.2224  C.3     1  <O>11      -0.0510
   8 H5       -0.3105    -0.3920     1.3249  H       1  <O>11       0.0268
   9 H6       -0.4368    -1.5567     0.0092  H       1  <O>11       0.0268
  10 C4       -1.4804     0.3072    -0.3715  C.3     1  <O>11      -0.0557
  11 H7       -1.4685     0.2253    -1.4759  H       1  <O>11       0.0263
  12 H8       -1.3638     1.3859    -0.1468  H       1  <O>11       0.0263
  13 C5       -2.8210    -0.1882     0.1673  C.3     1  <O>11      -0.0653
  14 H9       -2.8791    -0.0878     1.2570  H       1  <O>11       0.0230
  15 H10      -3.6541     0.3806    -0.2599  H       1  <O>11       0.0230
  16 H11      -2.9869    -1.2444    -0.0728  H       1  <O>11       0.0230
  17 C6        0.8961     0.7016    -1.6835  C.3     1  <O>11      -0.0627
  18 H12       0.4185     0.0487    -2.4220  H       1  <O>11       0.0232
  19 H13       0.2783     1.6015    -1.5952  H       1  <O>11       0.0232
  20 H14       1.8651     1.0077    -2.0906  H       1  <O>11       0.0232
@<TRIPOS>BOND
     1     1     4    1
     2     1     3    1
     3     1     2    1
     4     5    17    1
     5     1     5    1
     6     5     6    1
     7     5     7    1
     8     7     8    1
     9     7     9    1
    10    10    11    1
    11     7    10    1
    12    10    12    1
    13    10    13    1
    14    13    14    1
    15    13    15    1
    16    13    16    1
    17    17    19    1
    18    17    20    1
    19    17    18    1
@<TRIPOS>MOLECULE
C6H14_2_3
 20 19 0 0 0
SMALL
USER_CHARGES
****
VDW energy = 11.59
@<TRIPOS>ATOM
   1 C1        2.1311    -0.0941     0.7617  C.3     1  <O>11      -0.0627
   2 H1        2.2509    -1.1196     1.1260  H       1  <O>11       0.0232
   3 H2        1.8814     0.5349     1.6227  H       1  <O>11       0.0232
   4 H3        3.1056     0.2372     0.3881  H       1  <O>11       0.0232
   5 C2        1.0575    -0.0077    -0.3327  C.3     1  <O>11      -0.0467
   6 H4        1.3556    -0.6894    -1.1680  H       1  <O>11       0.0295
   7 C3       -0.3037    -0.4787     0.2224  C.3     1  <O>11      -0.0510
   8 H5       -0.3105    -0.3920     1.3249  H       1  <O>11       0.0268
   9 H6       -0.4368    -1.5567     0.0092  H       1  <O>11       0.0268
  10 C4       -1.4804     0.3072    -0.3715  C.3     1  <O>11      -0.0557
  11 H7       -1.4685     0.2253    -1.4759  H       1  <O>11       0.0263
  12 H8       -1.3638     1.3859    -0.1468  H       1  <O>11       0.0263
  13 C5       -2.8210    -0.1882     0.1673  C.3     1  <O>11      -0.0653
  14 H9       -2.8791    -0.0878     1.2570  H       1  <O>11       0.0230
  15 H10      -3.6541     0.3806    -0.2599  H       1  <O>11       0.0230
  16 H11      -2.9869    -1.2444    -0.0728  H       1  <O>11       0.0230
  17 C6        0.9732     1.4219    -0.8832  C.3     1  <O>11      -0.0627
  18 H12       0.2208     1.5002    -1.6753  H       1  <O>11       0.0232
  19 H13       0.7010     2.1394    -0.1020  H       1  <O>11       0.0232
  20 H14       1.9312     1.7433    -1.3044  H       1  <O>11       0.0232
@<TRIPOS>BOND
     1     1     4    1
     2     1     3    1
     3     1     2    1
     4     5    17    1
     5     1     5    1
     6     5     6    1
     7     5     7    1
     8     7     8    1
     9     7     9    1
    10    10    11    1
    11     7    10    1
    12    10    12    1
    13    10    13    1
    14    13    14    1
    15    13    15    1
    16    13    16    1
    17    17    19    1
    18    17    20    1
    19    17    18    1
@<TRIPOS>MOLECULE
C6H14_2_4
 20 19 0 0 0
SMALL
USER_CHARGES
****
VDW energy = 16.39
@<TRIPOS>ATOM
   1 C1        0.3809    -2.4585     1.6291  C.3     1  <O>11      -0.0627
   2 H1        0.5944    -1.8191     2.4918  H       1  <O>11       0.0232
   3 H2        1.3149    -2.5819     1.0707  H       1  <O>11       0.0232
   4 H3        0.0986    -3.4442     2.0133  H       1  <O>11       0.0232
   5 C2       -0.7298    -1.8653     0.7503  C.3     1  <O>11      -0.0467
   6 H4       -1.6442    -1.7392     1.3821  H       1  <O>11       0.0295
   7 C3       -0.3037    -0.4787     0.2224  C.3     1  <O>11      -0.0510
   8 H5        0.4937    -0.5936    -0.5352  H       1  <O>11       0.0268
   9 H6        0.1511     0.1061     1.0448  H       1  <O>11       0.0268
  10 C4       -1.4804     0.3072    -0.3715  C.3     1  <O>11      -0.0557
  11 H7       -1.4685     0.2253    -1.4759  H       1  <O>11       0.0263
  12 H8       -1.3638     1.3859    -0.1468  H       1  <O>11       0.0263
  13 C5       -2.8210    -0.1882     0.1673  C.3     1  <O>11      -0.0653
  14 H9       -2.8791    -0.0878     1.2570  H       1  <O>11       0.0230
  15 H10      -3.6541     0.3806    -0.2599  H       1  <O>11       0.0230
  16 H11      -2.9869    -1.2444    -0.0728  H       1  <O>11       0.0230
  17 C6       -1.0663    -2.8231    -0.4000  C.3     1  <O>11      -0.0627
  18 H12      -1.8669    -2.4224    -1.0310  H       1  <O>11       0.0232
  19 H13      -0.1990    -2.9990    -1.0451  H       1  <O>11       0.0232
  20 H14      -1.3978    -3.7961    -0.0236  H       1  <O>11       0.0232
@<TRIPOS>BOND
     1     1     4    1
     2     1     3    1
     3     1     2    1
     4     5    17    1
     5     1     5    1
     6     5     6    1
     7     5     7    1
     8     7     8    1
     9     7     9    1
    10    10    11    1
    11     7    10    1
    12    10    12    1
    13    10    13    1
    14    13    14    1
    15    13    15    1
    16    13    16    1
    17    17    19    1
    18    17    20    1
    19    17    18    1
