@<TRIPOS>MOLECULE
C6H14_2_1
 20 19 0 0 0
SMALL
USER_CHARGES
****
VDW energy = 6.31
@<TRIPOS>ATOM
      1 C1          2.1576   -1.0077    0.0603 C.3       1<O>11        -0.0627
      2 H1          1.9148   -2.0086   -0.3644 H         1<O>11         0.0232
      3 H2          2.2525   -1.1017    1.1666 H         1<O>11         0.0232
      4 H3          3.1398   -0.6886   -0.3578 H         1<O>11         0.0232
      5 C2          1.0642    0.0073   -0.3058 C.3       1<O>11        -0.0467
      6 H4          1.0173    0.0505   -1.4197 H         1<O>11         0.0295
      7 C3         -0.3086   -0.4644    0.2251 C.3       1<O>11        -0.0510
      8 H5         -0.3099   -0.4242    1.3399 H         1<O>11         0.0268
      9 H6         -0.4583   -1.5283   -0.0760 H         1<O>11         0.0268
     10 C4         -1.5021    0.3404   -0.3127 C.3       1<O>11        -0.0557
     11 H7         -1.4851    0.3322   -1.4273 H         1<O>11         0.0263
     12 H8         -1.4394    1.3963    0.0343 H         1<O>11         0.0263
     13 C5         -2.8387   -0.2288    0.1575 C.3       1<O>11        -0.0653
     14 H9         -2.8988   -0.2062    1.2696 H         1<O>11         0.0230
     15 H10        -3.6713    0.3834   -0.2572 H         1<O>11         0.0230
     16 H11        -2.9599   -1.2789   -0.1938 H         1<O>11         0.0230
     17 C6          1.4526    1.4038    0.2056 C.3       1<O>11        -0.0627
     18 H12         0.7403    2.1730   -0.1667 H         1<O>11         0.0232
     19 H13         1.4587    1.4267    1.3195 H         1<O>11         0.0232
     20 H14         2.4666    1.6830   -0.1619 H         1<O>11         0.0232
@<TRIPOS>BOND
     1    1    4 1
     2    1    3 1
     3    1    2 1
     4    5   17 1
     5    1    5 1
     6    5    6 1
     7    5    7 1
     8    7    8 1
     9    7    9 1
    10   10   11 1
    11    7   10 1
    12   10   12 1
    13   10   13 1
    14   13   14 1
    15   13   15 1
    16   13   16 1
    17   17   19 1
    18   17   20 1
    19   17   18 1
@<TRIPOS>MOLECULE
C6H14_2_2
 20 19 0 0 0
SMALL
USER_CHARGES
****
VDW energy = 11.51
@<TRIPOS>ATOM
      1 C1          1.5249    1.1353    0.6082 C.3       1<O>11        -0.0627
      2 H1          1.4564    0.7889    1.6646 H         1<O>11         0.0232
      3 H2          0.9091    2.0552    0.4903 H         1<O>11         0.0232
      4 H3          2.5873    1.3957    0.3973 H         1<O>11         0.0232
      5 C2          1.0559    0.0288   -0.3475 C.3       1<O>11        -0.0467
      6 H4          1.7780   -0.8141   -0.2309 H         1<O>11         0.0295
      7 C3         -0.3322   -0.5423    0.0223 C.3       1<O>11        -0.0510
      8 H5         -0.2892   -0.9110    1.0742 H         1<O>11         0.0268
      9 H6         -0.5292   -1.4279   -0.6266 H         1<O>11         0.0268
     10 C4         -1.5154    0.4312   -0.1118 C.3       1<O>11        -0.0557
     11 H7         -1.6208    0.7543   -1.1724 H         1<O>11         0.0263
     12 H8         -1.3430    1.3328    0.5183 H         1<O>11         0.0263
     13 C5         -2.8333   -0.2052    0.3226 C.3       1<O>11        -0.0653
     14 H9         -2.7847   -0.5023    1.3950 H         1<O>11         0.0230
     15 H10        -3.6616    0.5277    0.1934 H         1<O>11         0.0230
     16 H11        -3.0533   -1.1047   -0.2966 H         1<O>11         0.0230
     17 C6          1.1514    0.4835   -1.8109 C.3       1<O>11        -0.0627
     18 H12         0.8045   -0.3273   -2.4912 H         1<O>11         0.0232
     19 H13         0.5327    1.3922   -1.9882 H         1<O>11         0.0232
     20 H14         2.2084    0.7241   -2.0674 H         1<O>11         0.0232
@<TRIPOS>BOND
     1    1    4 1
     2    1    3 1
     3    1    2 1
     4    5   17 1
     5    1    5 1
     6    5    6 1
     7    5    7 1
     8    7    8 1
     9    7    9 1
    10   10   11 1
    11    7   10 1
    12   10   12 1
    13   10   13 1
    14   13   14 1
    15   13   15 1
    16   13   16 1
    17   17   19 1
    18   17   20 1
    19   17   18 1
@<TRIPOS>MOLECULE
C6H14_2_3
 20 19 0 0 0
SMALL
USER_CHARGES
****
VDW energy = 11.59
@<TRIPOS>ATOM
      1 C1          2.1578   -0.3186    0.5590 C.3       1<O>11        -0.0627
      2 H1          2.0694   -1.4101    0.7632 H         1<O>11         0.0232
      3 H2          2.1672    0.2274    1.5304 H         1<O>11         0.0232
      4 H3          3.1292   -0.1451    0.0418 H         1<O>11         0.0232
      5 C2          0.9910    0.1580   -0.3192 C.3       1<O>11        -0.0467
      6 H4          1.0414   -0.4177   -1.2735 H         1<O>11         0.0295
      7 C3         -0.3585   -0.1537    0.3666 C.3       1<O>11        -0.0510
      8 H5         -0.4404    0.4329    1.3118 H         1<O>11         0.0268
      9 H6         -0.3709   -1.2364    0.6359 H         1<O>11         0.0268
     10 C4         -1.5916    0.1269   -0.5063 C.3       1<O>11        -0.0557
     11 H7         -1.4775   -0.3812   -1.4917 H         1<O>11         0.0263
     12 H8         -1.6894    1.2223   -0.6816 H         1<O>11         0.0263
     13 C5         -2.8829   -0.3617    0.1457 C.3       1<O>11        -0.0653
     14 H9         -3.0303    0.1325    1.1329 H         1<O>11         0.0230
     15 H10        -3.7485   -0.1149   -0.5099 H         1<O>11         0.0230
     16 H11        -2.8503   -1.4656    0.2907 H         1<O>11         0.0230
     17 C6          1.1619    1.6473   -0.6581 C.3       1<O>11        -0.0627
     18 H12         0.4094    1.9670   -1.4129 H         1<O>11         0.0232
     19 H13         1.0464    2.2740    0.2557 H         1<O>11         0.0232
     20 H14         2.1703    1.8331   -1.0936 H         1<O>11         0.0232
@<TRIPOS>BOND
     1    1    4 1
     2    1    3 1
     3    1    2 1
     4    5   17 1
     5    1    5 1
     6    5    6 1
     7    5    7 1
     8    7    8 1
     9    7    9 1
    10   10   11 1
    11    7   10 1
    12   10   12 1
    13   10   13 1
    14   13   14 1
    15   13   15 1
    16   13   16 1
    17   17   19 1
    18   17   20 1
    19   17   18 1
@<TRIPOS>MOLECULE
C6H14_2_4
 20 19 0 0 0
SMALL
USER_CHARGES
****
VDW energy = 16.39
@<TRIPOS>ATOM
      1 C1          0.4609   -2.5393    1.6021 C.3       1<O>11        -0.0627
      2 H1          0.5694   -1.9177    2.5203 H         1<O>11         0.0232
      3 H2          1.4198   -2.5102    1.0352 H         1<O>11         0.0232
      4 H3          0.2655   -3.5890    1.9201 H         1<O>11         0.0232
      5 C2         -0.6968   -2.0178    0.7377 C.3       1<O>11        -0.0467
      6 H4         -1.6187   -2.0911    1.3600 H         1<O>11         0.0295
      7 C3         -0.4612   -0.5335    0.3704 C.3       1<O>11        -0.0510
      8 H5          0.4881   -0.4534   -0.2095 H         1<O>11         0.0268
      9 H6         -0.3230    0.0507    1.3107 H         1<O>11         0.0268
     10 C4         -1.5652    0.1584   -0.4478 C.3       1<O>11        -0.0557
     11 H7         -1.6636   -0.3241   -1.4465 H         1<O>11         0.0263
     12 H8         -1.2484    1.2128   -0.6227 H         1<O>11         0.0263
     13 C5         -2.9312    0.1880    0.2359 C.3       1<O>11        -0.0653
     14 H9         -2.8461    0.6253    1.2566 H         1<O>11         0.0230
     15 H10        -3.6316    0.8131   -0.3630 H         1<O>11         0.0230
     16 H11        -3.3558   -0.8382    0.3090 H         1<O>11         0.0230
     17 C6         -0.8833   -2.9179   -0.4933 C.3       1<O>11        -0.0627
     18 H12        -1.8102   -2.6413   -1.0436 H         1<O>11         0.0232
     19 H13        -0.0125   -2.8263   -1.1819 H         1<O>11         0.0232
     20 H14        -0.9842   -3.9833   -0.1837 H         1<O>11         0.0232
@<TRIPOS>BOND
     1    1    4 1
     2    1    3 1
     3    1    2 1
     4    5   17 1
     5    1    5 1
     6    5    6 1
     7    5    7 1
     8    7    8 1
     9    7    9 1
    10   10   11 1
    11    7   10 1
    12   10   12 1
    13   10   13 1
    14   13   14 1
    15   13   15 1
    16   13   16 1
    17   17   19 1
    18   17   20 1
    19   17   18 1
