@<TRIPOS>MOLECULE
C6H14_2_1
 20 19 0 0 0
SMALL
USER_CHARGES
****
VDW energy = no energy computed
@<TRIPOS>ATOM
      1 C1          2.1502   -1.0287    0.0156 C.3     1  <O>11      -0.0627
      2 H1          1.9319   -2.0120   -0.4135 H       1  <O>11       0.0232
      3 H2          2.2529   -1.1566    1.0984 H       1  <O>11       0.0232
      4 H3          3.1255   -0.7123   -0.3688 H       1  <O>11       0.0232
      5 C2          1.0575   -0.0077   -0.3327 C.3     1  <O>11      -0.0467
      6 H4          0.9835    0.0572   -1.4470 H       1  <O>11       0.0295
      7 C3         -0.3037   -0.4787    0.2224 C.3     1  <O>11      -0.0510
      8 H5         -0.3105   -0.3920    1.3249 H       1  <O>11       0.0268
      9 H6         -0.4368   -1.5567    0.0092 H       1  <O>11       0.0268
     10 C4         -1.4804    0.3072   -0.3715 C.3     1  <O>11      -0.0557
     11 H7         -1.4685    0.2253   -1.4759 H       1  <O>11       0.0263
     12 H8         -1.3638    1.3859   -0.1468 H       1  <O>11       0.0263
     13 C5         -2.8210   -0.1882    0.1673 C.3     1  <O>11      -0.0653
     14 H9         -2.8791   -0.0878    1.2570 H       1  <O>11       0.0230
     15 H10        -3.6541    0.3806   -0.2599 H       1  <O>11       0.0230
     16 H11        -2.9869   -1.2444   -0.0728 H       1  <O>11       0.0230
     17 C6          1.4331    1.3783    0.2075 C.3     1  <O>11      -0.0627
     18 H12         0.6707    2.1237   -0.0430 H       1  <O>11       0.0232
     19 H13         1.5375    1.3715    1.2976 H       1  <O>11       0.0232
     20 H14         2.3837    1.7243   -0.2109 H       1  <O>11       0.0232
@<TRIPOS>BOND
     1     1     4    1
     2     1     3    1
     3     1     2    1
     4     5    17    1
     5     1     5    1
     6     5     6    1
     7     5     7    1
     8     7     8    1
     9     7     9    1
    10    10    11    1
    11     7    10    1
    12    10    12    1
    13    10    13    1
    14    13    14    1
    15    13    15    1
    16    13    16    1
    17    17    19    1
    18    17    20    1
    19    17    18    1
