@<TRIPOS>MOLECULE
dummy
 20 19 0 0 0
SMALL
USER_CHARGES
****
VDW energy = 6.31
@<TRIPOS>ATOM
      1 C1          2.1560   -1.0080    0.0320 C.3       1<O>11        -0.0627
      2 H1          1.9490   -1.9860   -0.4140 H         1<O>11         0.0232
      3 H2          2.2490   -1.1510    1.1130 H         1<O>11         0.0232
      4 H3          3.1330   -0.6790   -0.3390 H         1<O>11         0.0232
      5 C2          1.0590    0.0100   -0.3120 C.3       1<O>11        -0.0467
      6 H4          0.9960    0.0910   -1.4260 H         1<O>11         0.0295
      7 C3         -0.3040   -0.4790    0.2220 C.3       1<O>11        -0.0510
      8 H5         -0.3220   -0.4080    1.3260 H         1<O>11         0.0268
      9 H6         -0.4270   -1.5540   -0.0080 H         1<O>11         0.0268
     10 C4         -1.4800    0.3070   -0.3710 C.3       1<O>11        -0.0557
     11 H7         -1.4690    0.2250   -1.4760 H         1<O>11         0.0263
     12 H8         -1.3640    1.3860   -0.1470 H         1<O>11         0.0263
     13 C5         -2.8210   -0.1880    0.1670 C.3       1<O>11        -0.0653
     14 H9         -2.8790   -0.0880    1.2570 H         1<O>11         0.0230
     15 H10        -3.6540    0.3810   -0.2600 H         1<O>11         0.0230
     16 H11        -2.9870   -1.2440   -0.0730 H         1<O>11         0.0230
     17 C6          1.4190    1.3910    0.2510 C.3       1<O>11        -0.0627
     18 H12         0.6540    2.1340    0.0040 H         1<O>11         0.0232
     19 H13         1.5130    1.3690    1.3420 H         1<O>11         0.0232
     20 H14         2.3710    1.7500   -0.1530 H         1<O>11         0.0232
@<TRIPOS>BOND
     1    1    4 1
     2    1    3 1
     3    1    2 1
     4    5   17 1
     5    1    5 1
     6    5    6 1
     7    5    7 1
     8    7    8 1
     9    7    9 1
    10   10   11 1
    11    7   10 1
    12   10   12 1
    13   10   13 1
    14   13   14 1
    15   13   15 1
    16   13   16 1
    17   17   19 1
    18   17   20 1
    19   17   18 1
