@<TRIPOS>MOLECULE
dummy
 20 19 0 0 0
SMALL
USER_CHARGES
****
VDW energy = 6.31
@<TRIPOS>ATOM
   1 C1        2.1561    -1.0078     0.0316  C.3     1  <O>11      -0.0627
   2 H1        1.9492    -1.9863    -0.4138  H       1  <O>11       0.0232
   3 H2        2.2493    -1.1507     1.1134  H       1  <O>11       0.0232
   4 H3        3.1327    -0.6787    -0.3386  H       1  <O>11       0.0232
   5 C2        1.0593     0.0102    -0.3125  C.3     1  <O>11      -0.0467
   6 H4        0.9956     0.0908    -1.4264  H       1  <O>11       0.0295
   7 C3       -0.3037    -0.4787     0.2224  C.3     1  <O>11      -0.0510
   8 H5       -0.3218    -0.4081     1.3259  H       1  <O>11       0.0268
   9 H6       -0.4267    -1.5544    -0.0077  H       1  <O>11       0.0268
  10 C4       -1.4804     0.3072    -0.3715  C.3     1  <O>11      -0.0557
  11 H7       -1.4685     0.2253    -1.4759  H       1  <O>11       0.0263
  12 H8       -1.3638     1.3859    -0.1468  H       1  <O>11       0.0263
  13 C5       -2.8210    -0.1882     0.1673  C.3     1  <O>11      -0.0653
  14 H9       -2.8791    -0.0878     1.2570  H       1  <O>11       0.0230
  15 H10      -3.6541     0.3806    -0.2599  H       1  <O>11       0.0230
  16 H11      -2.9869    -1.2444    -0.0728  H       1  <O>11       0.0230
  17 C6        1.4194     1.3909     0.2514  C.3     1  <O>11      -0.0627
  18 H12       0.6539     2.1343     0.0043  H       1  <O>11       0.0232
  19 H13       1.5133     1.3690     1.3422  H       1  <O>11       0.0232
  20 H14       2.3714     1.7498    -0.1527  H       1  <O>11       0.0232
@<TRIPOS>BOND
     1     1     4    1
     2     1     3    1
     3     1     2    1
     4     5    17    1
     5     1     5    1
     6     5     6    1
     7     5     7    1
     8     7     8    1
     9     7     9    1
    10    10    11    1
    11     7    10    1
    12    10    12    1
    13    10    13    1
    14    13    14    1
    15    13    15    1
    16    13    16    1
    17    17    19    1
    18    17    20    1
    19    17    18    1
